data_image0
_chemical_formula_structural       Al4H10C10O16N2
_chemical_formula_sum              "Al4 H10 C10 O16 N2"
_cell_length_a       7.17418
_cell_length_b       7.4794
_cell_length_c       11.1229
_cell_angle_alpha    107.513
_cell_angle_beta     106.447
_cell_angle_gamma    96.323

_space_group_name_H-M_alt    "P 1"
_space_group_IT_number       1

loop_
  _space_group_symop_operation_xyz
  'x, y, z'

loop_
  _atom_site_type_symbol
  _atom_site_label
  _atom_site_symmetry_multiplicity
  _atom_site_fract_x
  _atom_site_fract_y
  _atom_site_fract_z
  _atom_site_occupancy
  Al  Al1       1.0  0.29166  0.29186  0.58401  1.0000
  Al  Al2       1.0  0.70833  0.70814  0.41600  1.0000
  Al  Al3       1.0  1.00000  0.50000  0.50000  1.0000
  Al  Al4       1.0  0.50000  0.00000  0.50000  1.0000
  H   H1        1.0  0.01775  0.34267  0.67087  1.0000
  H   H2        1.0  0.14093  0.93835  0.46320  1.0000
  H   H3        1.0  0.65156  0.32865  0.67108  1.0000
  H   H4        1.0  0.32343  0.52517  0.46387  1.0000
  H   H5        1.0  0.98225  0.65733  0.32913  1.0000
  H   H6        1.0  0.85906  0.06165  0.53680  1.0000
  H   H7        1.0  0.34843  0.67135  0.32893  1.0000
  H   H8        1.0  0.67656  0.47484  0.53613  1.0000
  H   H9        1.0  0.54939  0.33475  0.00012  1.0000
  H   H10       1.0  0.45061  0.66525  0.99988  1.0000
  C   C1        1.0  0.42015  0.06973  0.75015  1.0000
  C   C2        1.0  0.45269  0.03396  0.87898  1.0000
  C   C3        1.0  0.32795  0.68022  0.75035  1.0000
  C   C4        1.0  0.42485  0.84504  0.87896  1.0000
  C   C5        1.0  0.57984  0.93027  0.24985  1.0000
  C   C6        1.0  0.54731  0.96605  0.12102  1.0000
  C   C7        1.0  0.67205  0.31978  0.24965  1.0000
  C   C8        1.0  0.57514  0.15496  0.12104  1.0000
  C   C9        1.0  0.52612  0.18828  0.00002  1.0000
  C   C10       1.0  0.47387  0.81172  0.99998  1.0000
  O   O1        1.0  0.02467  0.30506  0.58107  1.0000
  O   O2        1.0  0.24059  0.04034  0.46407  1.0000
  O   O3        1.0  0.32432  0.19875  0.73318  1.0000
  O   O4        1.0  0.50078  0.97460  0.67062  1.0000
  O   O5        1.0  0.55599  0.27576  0.58107  1.0000
  O   O6        1.0  0.22401  0.42427  0.46440  1.0000
  O   O7        1.0  0.40724  0.53436  0.73313  1.0000
  O   O8        1.0  0.16750  0.69540  0.67145  1.0000
  O   O9        1.0  0.97532  0.69494  0.41893  1.0000
  O   O10       1.0  0.75940  0.95966  0.53594  1.0000
  O   O11       1.0  0.67568  0.80125  0.26682  1.0000
  O   O12       1.0  0.49922  0.02541  0.32938  1.0000
  O   O13       1.0  0.44400  0.72424  0.41894  1.0000
  O   O14       1.0  0.77598  0.57573  0.53560  1.0000
  O   O15       1.0  0.59276  0.46565  0.26687  1.0000
  O   O16       1.0  0.83249  0.30460  0.32855  1.0000
  N   N1        1.0  0.09053  0.14124  0.14743  1.0000
  N   N2        1.0  0.05703  0.99445  0.14799  1.0000
