data_image0
_chemical_formula_structural       Al4H16C32O21CO
_chemical_formula_sum              "Al4 H16 C33 O22"
_cell_length_a       11.9285
_cell_length_b       12.1059
_cell_length_c       12.1047
_cell_angle_alpha    75.9072
_cell_angle_beta     60.4319
_cell_angle_gamma    60.4439

_space_group_name_H-M_alt    "P 1"
_space_group_IT_number       1

loop_
  _space_group_symop_operation_xyz
  'x, y, z'

loop_
  _atom_site_type_symbol
  _atom_site_label
  _atom_site_symmetry_multiplicity
  _atom_site_fract_x
  _atom_site_fract_y
  _atom_site_fract_z
  _atom_site_occupancy
  Al  Al1       1.0  0.19208  0.99999  0.61605  1.0000
  Al  Al2       1.0  0.80806  0.99997  0.38385  1.0000
  Al  Al3       1.0  0.94199  0.11614  0.49993  1.0000
  Al  Al4       1.0  0.55814  0.88377  0.50008  1.0000
  H   H1        1.0  0.64758  0.05901  0.80350  1.0000
  H   H2        1.0  0.50993  0.94105  0.19655  1.0000
  H   H3        1.0  0.45646  0.30362  0.44094  1.0000
  H   H4        1.0  0.20106  0.69660  0.55874  1.0000
  H   H5        1.0  0.10244  0.69649  0.44106  1.0000
  H   H6        1.0  0.24013  0.30349  0.55887  1.0000
  H   H7        1.0  0.29343  0.05913  0.19647  1.0000
  H   H8        1.0  0.54908  0.94112  0.80345  1.0000
  H   H9        1.0  0.18919  0.93580  0.43600  1.0000
  H   H10       1.0  0.56087  0.06398  0.56401  1.0000
  H   H11       1.0  0.87507  0.93581  0.56395  1.0000
  H   H12       1.0  0.37537  0.06388  0.43594  1.0000
  H   H13       1.0  0.88998  0.99983  0.99988  1.0000
  H   H14       1.0  0.63988  0.49984  0.49998  1.0000
  H   H15       1.0  0.86007  0.50011  0.50020  1.0000
  H   H16       1.0  0.11018  0.99999  0.00015  1.0000
  C   C1        1.0  0.89114  0.04871  0.76568  1.0000
  C   C2        1.0  0.78120  0.02744  0.88869  1.0000
  C   C3        1.0  0.66152  0.03107  0.89001  1.0000
  C   C4        1.0  0.70564  0.95112  0.23424  1.0000
  C   C5        1.0  0.69744  0.97241  0.11124  1.0000
  C   C6        1.0  0.58262  0.96884  0.10999  1.0000
  C   C7        1.0  0.68978  0.26573  0.45112  1.0000
  C   C8        1.0  0.55864  0.38877  0.47237  1.0000
  C   C9        1.0  0.44255  0.39008  0.46883  1.0000
  C   C10       1.0  0.40675  0.73421  0.54877  1.0000
  C   C11       1.0  0.41991  0.61125  0.52740  1.0000
  C   C12       1.0  0.30150  0.61000  0.53100  1.0000
  C   C13       1.0  0.85907  0.73422  0.45122  1.0000
  C   C14       1.0  0.96889  0.61125  0.47259  1.0000
  C   C15       1.0  0.08853  0.60998  0.46898  1.0000
  C   C16       1.0  0.04447  0.26577  0.54878  1.0000
  C   C17       1.0  0.05260  0.38877  0.52758  1.0000
  C   C18       1.0  0.16741  0.39005  0.53115  1.0000
  C   C19       1.0  0.06016  0.04885  0.23423  1.0000
  C   C20       1.0  0.19137  0.02762  0.11125  1.0000
  C   C21       1.0  0.30742  0.03120  0.10997  1.0000
  C   C22       1.0  0.34340  0.95103  0.76581  1.0000
  C   C23       1.0  0.33021  0.97247  0.88877  1.0000
  C   C24       1.0  0.44859  0.96890  0.89004  1.0000
  C   C25       1.0  0.79882  0.99992  0.99993  1.0000
  C   C26       1.0  0.56186  0.00000  0.00002  1.0000
  C   C27       1.0  0.54880  0.49995  0.49984  1.0000
  C   C28       1.0  0.31184  0.50008  0.49990  1.0000
  C   C29       1.0  0.95124  0.50005  0.50010  1.0000
  C   C30       1.0  0.18816  0.50001  0.50004  1.0000
  C   C31       1.0  0.20126  0.00011  0.00004  1.0000
  C   C32       1.0  0.43818  0.00011  0.99996  1.0000
  O   O1        1.0  0.84926  0.11037  0.68036  1.0000
  O   O2        1.0  0.01788  0.00045  0.75467  1.0000
  O   O3        1.0  0.64013  0.88941  0.31954  1.0000
  O   O4        1.0  0.77307  0.99938  0.24524  1.0000
  O   O5        1.0  0.70952  0.18053  0.38940  1.0000
  O   O6        1.0  0.76821  0.25466  0.49942  1.0000
  O   O7        1.0  0.27943  0.81951  0.61032  1.0000
  O   O8        1.0  0.52248  0.74525  0.50068  1.0000
  O   O9        1.0  0.90109  0.81945  0.38954  1.0000
  O   O10       1.0  0.73230  0.74523  0.49942  1.0000
  O   O11       1.0  0.10999  0.18051  0.61048  1.0000
  O   O12       1.0  0.97705  0.25479  0.50048  1.0000
  O   O13       1.0  0.04018  0.11069  0.31946  1.0000
  O   O14       1.0  0.98186  0.00042  0.24525  1.0000
  O   O15       1.0  0.47073  0.88928  0.68059  1.0000
  O   O16       1.0  0.22773  0.99929  0.75467  1.0000
  O   O17       1.0  0.12440  0.00108  0.50070  1.0000
  O   O18       1.0  0.62584  0.99902  0.49899  1.0000
  O   O19       1.0  0.87481  0.00099  0.49913  1.0000
  O   O20       1.0  0.37519  0.99904  0.50109  1.0000
  O   O21       1.0  0.16067  0.75846  0.90434  1.0000
  C   C33       1.0  0.10137  0.74333  0.86121  1.0000
  O   O22       1.0  0.04206  0.72821  0.81807  1.0000
