data_image0
_chemical_formula_structural       Al2H10C20O18N2
_chemical_formula_sum              "Al2 H10 C20 O18 N2"
_cell_length_a       6.68176
_cell_length_b       11.1752
_cell_length_c       11.0666
_cell_angle_alpha    70.975
_cell_angle_beta     73.3156
_cell_angle_gamma    71.4341

_space_group_name_H-M_alt    "P 1"
_space_group_IT_number       1

loop_
  _space_group_symop_operation_xyz
  'x, y, z'

loop_
  _atom_site_type_symbol
  _atom_site_label
  _atom_site_symmetry_multiplicity
  _atom_site_fract_x
  _atom_site_fract_y
  _atom_site_fract_z
  _atom_site_occupancy
  Al  Al1       1.0  0.99552  0.99941  0.00965  1.0000
  Al  Al2       1.0  0.49160  0.00453  0.01323  1.0000
  H   H1        1.0  0.35965  0.87094  0.42876  1.0000
  H   H2        1.0  0.13725  0.60312  0.09759  1.0000
  H   H3        1.0  0.61610  0.09624  0.60860  1.0000
  H   H4        1.0  0.85954  0.41600  0.86221  1.0000
  H   H5        1.0  0.41779  0.19923  0.30644  1.0000
  H   H6        1.0  0.74654  0.75571  0.97652  1.0000
  H   H7        1.0  0.16777  0.68954  0.72758  1.0000
  H   H8        1.0  0.00027  0.27690  0.24757  1.0000
  H   H9        1.0  0.19302  0.16245  0.92839  1.0000
  H   H10       1.0  0.71008  0.91918  0.17580  1.0000
  C   C1        1.0  0.05609  0.99298  0.38352  1.0000
  C   C2        1.0  0.84393  0.05714  0.43388  1.0000
  C   C3        1.0  0.19857  0.92283  0.46798  1.0000
  C   C4        1.0  0.12806  0.99141  0.24318  1.0000
  C   C5        1.0  0.70008  0.15340  0.34514  1.0000
  C   C6        1.0  0.44824  0.63598  0.99722  1.0000
  C   C7        1.0  0.65347  0.58424  0.92512  1.0000
  C   C8        1.0  0.29840  0.55897  0.05062  1.0000
  C   C9        1.0  0.36936  0.77040  0.01804  1.0000
  C   C10       1.0  0.83704  0.64870  0.85662  1.0000
  C   C11       1.0  0.92710  0.98464  0.65045  1.0000
  C   C12       1.0  0.13790  0.91859  0.60096  1.0000
  C   C13       1.0  0.77978  0.04932  0.56736  1.0000
  C   C14       1.0  0.85889  0.99528  0.78816  1.0000
  C   C15       1.0  0.30646  0.83619  0.68159  1.0000
  C   C16       1.0  0.55916  0.37614  0.97944  1.0000
  C   C17       1.0  0.35106  0.43021  0.04315  1.0000
  C   C18       1.0  0.70243  0.45552  0.91656  1.0000
  C   C19       1.0  0.62971  0.23473  0.98409  1.0000
  C   C20       1.0  0.17453  0.35979  0.09349  1.0000
  O   O1        1.0  0.97920  0.00482  0.18508  1.0000
  O   O2        1.0  0.32972  0.97371  0.19437  1.0000
  O   O3        1.0  0.75072  0.25272  0.26894  1.0000
  O   O4        1.0  0.51027  0.12750  0.36163  1.0000
  O   O5        1.0  0.51007  0.82733  0.01701  1.0000
  O   O6        1.0  0.16849  0.81972  0.04176  1.0000
  O   O7        1.0  0.95881  0.62476  0.75519  1.0000
  O   O8        1.0  0.88087  0.72258  0.91387  1.0000
  O   O9        1.0  0.01024  0.98017  0.84405  1.0000
  O   O10       1.0  0.65760  0.02354  0.83732  1.0000
  O   O11       1.0  0.30132  0.71037  0.73291  1.0000
  O   O12       1.0  0.44981  0.87671  0.69032  1.0000
  O   O13       1.0  0.47845  0.17674  0.01366  1.0000
  O   O14       1.0  0.83105  0.18142  0.96160  1.0000
  O   O15       1.0  0.13958  0.30529  0.22411  1.0000
  O   O16       1.0  0.06344  0.36097  0.02280  1.0000
  O   O17       1.0  0.23853  0.06726  0.95048  1.0000
  O   O18       1.0  0.74341  0.93877  0.08100  1.0000
  N   N1        1.0  0.19249  0.27297  0.64268  1.0000
  N   N2        1.0  0.03957  0.27184  0.62473  1.0000
