data_image0
_chemical_formula_structural       Al2H4C20O19CO
_chemical_formula_sum              "Al2 H4 C21 O20"
_cell_length_a       6.57042
_cell_length_b       11.2357
_cell_length_c       11.2415
_cell_angle_alpha    68.7516
_cell_angle_beta     71.6616
_cell_angle_gamma    71.6773

_space_group_name_H-M_alt    "P 1"
_space_group_IT_number       1

loop_
  _space_group_symop_operation_xyz
  'x, y, z'

loop_
  _atom_site_type_symbol
  _atom_site_label
  _atom_site_symmetry_multiplicity
  _atom_site_fract_x
  _atom_site_fract_y
  _atom_site_fract_z
  _atom_site_occupancy
  Al  Al1       1.0  0.00000  0.00000  0.00000  1.0000
  Al  Al2       1.0  0.50000  0.00000  0.00000  1.0000
  H   H1        1.0  0.37595  0.88269  0.40947  1.0000
  H   H2        1.0  0.12415  0.59040  0.11745  1.0000
  H   H3        1.0  0.62404  0.11731  0.59053  1.0000
  H   H4        1.0  0.87585  0.40960  0.88255  1.0000
  C   C1        1.0  0.06077  0.99258  0.36934  1.0000
  C   C2        1.0  0.84420  0.05626  0.42138  1.0000
  C   C3        1.0  0.21246  0.93543  0.44776  1.0000
  C   C4        1.0  0.12919  0.98603  0.23075  1.0000
  C   C5        1.0  0.67307  0.12634  0.34324  1.0000
  C   C6        1.0  0.43909  0.63073  0.00736  1.0000
  C   C7        1.0  0.65569  0.57877  0.94368  1.0000
  C   C8        1.0  0.28753  0.55217  0.06460  1.0000
  C   C9        1.0  0.37063  0.76933  0.01396  1.0000
  C   C10       1.0  0.82694  0.65689  0.87362  1.0000
  C   C11       1.0  0.93922  0.00742  0.63066  1.0000
  C   C12       1.0  0.15579  0.94374  0.57862  1.0000
  C   C13       1.0  0.78753  0.06457  0.55223  1.0000
  C   C14       1.0  0.87080  0.01397  0.76925  1.0000
  C   C15       1.0  0.32692  0.87366  0.65676  1.0000
  C   C16       1.0  0.56090  0.36927  0.99264  1.0000
  C   C17       1.0  0.34431  0.42123  0.05632  1.0000
  C   C18       1.0  0.71246  0.44783  0.93540  1.0000
  C   C19       1.0  0.62936  0.23067  0.98604  1.0000
  C   C20       1.0  0.17306  0.34311  0.12638  1.0000
  O   O1        1.0  0.97284  0.01136  0.17545  1.0000
  O   O2        1.0  0.33478  0.95516  0.18481  1.0000
  O   O3        1.0  0.67884  0.24539  0.28880  1.0000
  O   O4        1.0  0.52910  0.07779  0.33830  1.0000
  O   O5        1.0  0.52691  0.82472  0.98861  1.0000
  O   O6        1.0  0.16500  0.81523  0.04489  1.0000
  O   O7        1.0  0.82133  0.71120  0.75461  1.0000
  O   O8        1.0  0.97101  0.66173  0.92211  1.0000
  O   O9        1.0  0.02715  0.98864  0.82455  1.0000
  O   O10       1.0  0.66521  0.04484  0.81519  1.0000
  O   O11       1.0  0.32115  0.75461  0.71119  1.0000
  O   O12       1.0  0.47089  0.92221  0.66169  1.0000
  O   O13       1.0  0.47308  0.17528  0.01139  1.0000
  O   O14       1.0  0.83499  0.18477  0.95510  1.0000
  O   O15       1.0  0.17866  0.28880  0.24539  1.0000
  O   O16       1.0  0.02899  0.33827  0.07789  1.0000
  O   O17       1.0  0.24992  0.05483  0.94537  1.0000
  O   O18       1.0  0.75008  0.94518  0.05462  1.0000
  O   O19       1.0  0.82407  0.75832  0.33659  1.0000
  C   C21       1.0  0.74978  0.71074  0.28902  1.0000
  O   O20       1.0  0.67549  0.66316  0.24144  1.0000
