data_image0
_chemical_formula_structural       In6H30C48O30CO2
_chemical_formula_sum              "In6 H30 C49 O32"
_cell_length_a       7.42538
_cell_length_b       21.9634
_cell_length_c       21.9417
_cell_angle_alpha    119.438
_cell_angle_beta     90.0141
_cell_angle_gamma    90.0132

_space_group_name_H-M_alt    "P 1"
_space_group_IT_number       1

loop_
  _space_group_symop_operation_xyz
  'x, y, z'

loop_
  _atom_site_type_symbol
  _atom_site_label
  _atom_site_symmetry_multiplicity
  _atom_site_fract_x
  _atom_site_fract_y
  _atom_site_fract_z
  _atom_site_occupancy
  In  In1       1.0  0.99911  0.00053  0.49899  1.0000
  In  In2       1.0  0.49866  0.00038  0.49923  1.0000
  In  In3       1.0  0.49617  0.49808  0.00020  1.0000
  In  In4       1.0  0.99593  0.49798  0.99895  1.0000
  In  In5       1.0  0.00354  0.00186  0.00104  1.0000
  In  In6       1.0  0.50386  0.00119  0.00151  1.0000
  H   H1        1.0  0.53798  0.20550  0.68214  1.0000
  H   H2        1.0  0.96169  0.02884  0.31965  1.0000
  H   H3        1.0  0.96230  0.03432  0.20739  1.0000
  H   H4        1.0  0.03823  0.79440  0.31745  1.0000
  H   H5        1.0  0.46153  0.97016  0.67780  1.0000
  H   H6        1.0  0.46269  0.96664  0.79078  1.0000
  H   H7        1.0  0.95921  0.31855  0.79474  1.0000
  H   H8        1.0  0.53616  0.67750  0.97075  1.0000
  H   H9        1.0  0.53923  0.78999  0.96684  1.0000
  H   H10       1.0  0.45949  0.68075  0.20580  1.0000
  H   H11       1.0  0.03635  0.31983  0.02720  1.0000
  H   H12       1.0  0.03918  0.20868  0.03443  1.0000
  H   H13       1.0  0.46125  0.79538  0.31842  1.0000
  H   H14       1.0  0.03808  0.97018  0.67689  1.0000
  H   H15       1.0  0.03975  0.96665  0.78992  1.0000
  H   H16       1.0  0.96066  0.20451  0.68111  1.0000
  H   H17       1.0  0.53843  0.02882  0.32036  1.0000
  H   H18       1.0  0.53970  0.03430  0.20809  1.0000
  H   H19       1.0  0.03642  0.67986  0.20480  1.0000
  H   H20       1.0  0.45949  0.31824  0.02733  1.0000
  H   H21       1.0  0.46201  0.20707  0.03454  1.0000
  H   H22       1.0  0.53627  0.31950  0.79576  1.0000
  H   H23       1.0  0.95955  0.67918  0.97062  1.0000
  H   H24       1.0  0.96265  0.79168  0.96673  1.0000
  H   H25       1.0  0.24384  0.53403  0.09910  1.0000
  H   H26       1.0  0.74909  0.09937  0.53139  1.0000
  H   H27       1.0  0.24875  0.90134  0.46809  1.0000
  H   H28       1.0  0.74381  0.53424  0.93539  1.0000
  H   H29       1.0  0.75448  0.92140  0.01380  1.0000
  H   H30       1.0  0.25452  0.01450  0.92133  1.0000
  C   C1        1.0  0.41252  0.23089  0.70702  1.0000
  C   C2        1.0  0.08650  0.03045  0.29475  1.0000
  C   C3        1.0  0.08702  0.03363  0.23293  1.0000
  C   C4        1.0  0.91276  0.76881  0.29269  1.0000
  C   C5        1.0  0.58652  0.96912  0.70291  1.0000
  C   C6        1.0  0.58757  0.96718  0.76539  1.0000
  C   C7        1.0  0.08433  0.29321  0.76930  1.0000
  C   C8        1.0  0.41184  0.70266  0.96935  1.0000
  C   C9        1.0  0.41364  0.76498  0.96727  1.0000
  C   C10       1.0  0.58492  0.70596  0.23093  1.0000
  C   C11       1.0  0.91222  0.29486  0.02930  1.0000
  C   C12       1.0  0.91385  0.23370  0.03355  1.0000
  C   C13       1.0  0.58589  0.76937  0.29327  1.0000
  C   C14       1.0  0.91359  0.96913  0.70226  1.0000
  C   C15       1.0  0.91448  0.96718  0.76472  1.0000
  C   C16       1.0  0.08535  0.23036  0.70645  1.0000
  C   C17       1.0  0.41395  0.03043  0.29526  1.0000
  C   C18       1.0  0.41476  0.03361  0.23347  1.0000
  C   C19       1.0  0.91172  0.70542  0.23032  1.0000
  C   C20       1.0  0.58484  0.29391  0.02938  1.0000
  C   C21       1.0  0.58624  0.23271  0.03361  1.0000
  C   C22       1.0  0.41177  0.29377  0.76990  1.0000
  C   C23       1.0  0.08526  0.70365  0.96928  1.0000
  C   C24       1.0  0.08701  0.76599  0.96721  1.0000
  C   C25       1.0  0.24968  0.12937  0.60888  1.0000
  C   C26       1.0  0.24932  0.19857  0.67513  1.0000
  C   C27       1.0  0.24851  0.02326  0.39153  1.0000
  C   C28       1.0  0.24979  0.02856  0.32599  1.0000
  C   C29       1.0  0.25137  0.03496  0.20198  1.0000
  C   C30       1.0  0.25338  0.03400  0.13331  1.0000
  C   C31       1.0  0.75095  0.87086  0.39039  1.0000
  C   C32       1.0  0.74988  0.80132  0.32443  1.0000
  C   C33       1.0  0.74766  0.97642  0.60599  1.0000
  C   C34       1.0  0.74941  0.97085  0.67146  1.0000
  C   C35       1.0  0.75171  0.96702  0.79710  1.0000
  C   C36       1.0  0.75363  0.97056  0.86714  1.0000
  C   C37       1.0  0.24631  0.39067  0.87107  1.0000
  C   C38       1.0  0.24756  0.32488  0.80156  1.0000
  C   C39       1.0  0.24635  0.60630  0.97619  1.0000
  C   C40       1.0  0.24765  0.67189  0.97097  1.0000
  C   C41       1.0  0.25130  0.79744  0.96695  1.0000
  C   C42       1.0  0.25361  0.86741  0.97033  1.0000
  C   C43       1.0  0.74635  0.60670  0.13012  1.0000
  C   C44       1.0  0.74774  0.67368  0.19887  1.0000
  C   C45       1.0  0.74621  0.38993  0.02058  1.0000
  C   C46       1.0  0.74768  0.32508  0.02693  1.0000
  C   C47       1.0  0.75097  0.20224  0.03539  1.0000
  C   C48       1.0  0.75349  0.13371  0.03465  1.0000
  O   O1        1.0  0.09577  0.10287  0.58358  1.0000
  O   O2        1.0  0.09376  0.02148  0.41609  1.0000
  O   O3        1.0  0.10033  0.03335  0.10648  1.0000
  O   O4        1.0  0.59737  0.89747  0.41557  1.0000
  O   O5        1.0  0.59275  0.97848  0.58171  1.0000
  O   O6        1.0  0.59997  0.97270  0.89435  1.0000
  O   O7        1.0  0.39974  0.41577  0.89775  1.0000
  O   O8        1.0  0.40020  0.58154  0.97855  1.0000
  O   O9        1.0  0.40874  0.89380  0.97273  1.0000
  O   O10       1.0  0.89995  0.58174  0.10320  1.0000
  O   O11       1.0  0.89960  0.41495  0.01823  1.0000
  O   O12       1.0  0.90845  0.10782  0.03332  1.0000
  O   O13       1.0  0.90536  0.89707  0.41518  1.0000
  O   O14       1.0  0.90135  0.97854  0.58111  1.0000
  O   O15       1.0  0.90857  0.97276  0.89372  1.0000
  O   O16       1.0  0.40365  0.10303  0.58378  1.0000
  O   O17       1.0  0.40225  0.02138  0.41664  1.0000
  O   O18       1.0  0.40818  0.03248  0.10721  1.0000
  O   O19       1.0  0.59143  0.58119  0.10496  1.0000
  O   O20       1.0  0.59157  0.41433  0.01837  1.0000
  O   O21       1.0  0.60061  0.10668  0.03371  1.0000
  O   O22       1.0  0.09159  0.41514  0.89705  1.0000
  O   O23       1.0  0.09154  0.58159  0.97782  1.0000
  O   O24       1.0  0.10010  0.89449  0.97217  1.0000
  O   O25       1.0  0.24841  0.95153  0.49994  1.0000
  O   O26       1.0  0.74845  0.04937  0.49864  1.0000
  O   O27       1.0  0.24523  0.49965  0.04950  1.0000
  O   O28       1.0  0.74521  0.49995  0.95126  1.0000
  O   O29       1.0  0.25447  0.02691  0.97043  1.0000
  O   O30       1.0  0.75447  0.97063  0.02692  1.0000
  C   C49       1.0  0.24586  0.85659  0.19163  1.0000
  O   O31       1.0  0.25000  0.84851  0.24083  1.0000
  O   O32       1.0  0.24170  0.86397  0.14210  1.0000
