data_image0
_chemical_formula_structural       Al8H56C72O48CO2
_chemical_formula_sum              "Al8 H56 C73 O50"
_cell_length_a       10.2393
_cell_length_b       16.016
_cell_length_c       16.0318
_cell_angle_alpha    84.1217
_cell_angle_beta     71.342
_cell_angle_gamma    71.3406

_space_group_name_H-M_alt    "P 1"
_space_group_IT_number       1

loop_
  _space_group_symop_operation_xyz
  'x, y, z'

loop_
  _atom_site_type_symbol
  _atom_site_label
  _atom_site_symmetry_multiplicity
  _atom_site_fract_x
  _atom_site_fract_y
  _atom_site_fract_z
  _atom_site_occupancy
  Al  Al1       1.0  0.33612  0.92050  0.56006  1.0000
  Al  Al2       1.0  0.81636  0.07996  0.44001  1.0000
  Al  Al3       1.0  0.00627  0.06008  0.57986  1.0000
  Al  Al4       1.0  0.64615  0.94045  0.42024  1.0000
  Al  Al5       1.0  0.41340  0.57997  0.93979  1.0000
  Al  Al6       1.0  0.93421  0.42013  0.05968  1.0000
  Al  Al7       1.0  0.74398  0.44004  0.91998  1.0000
  Al  Al8       1.0  0.10320  0.56034  0.07976  1.0000
  H   H1        1.0  0.51763  0.36503  0.28468  1.0000
  H   H2        1.0  0.52878  0.37931  0.39113  1.0000
  H   H3        1.0  0.38051  0.45105  0.35607  1.0000
  H   H4        1.0  0.43331  0.03611  0.72289  1.0000
  H   H5        1.0  0.01219  0.22913  0.76892  1.0000
  H   H6        1.0  0.29894  0.24839  0.90712  1.0000
  H   H7        1.0  0.73252  0.53049  0.02740  1.0000
  H   H8        1.0  0.16698  0.63595  0.71498  1.0000
  H   H9        1.0  0.29933  0.62133  0.60878  1.0000
  H   H10       1.0  0.18812  0.54935  0.64396  1.0000
  H   H11       1.0  0.19361  0.96343  0.27795  1.0000
  H   H12       1.0  0.00844  0.77293  0.23025  1.0000
  H   H13       1.0  0.45403  0.75197  0.09255  1.0000
  H   H14       1.0  0.29038  0.46927  0.97311  1.0000
  H   H15       1.0  0.63197  0.78447  0.13556  1.0000
  H   H16       1.0  0.65847  0.89076  0.12072  1.0000
  H   H17       1.0  0.58190  0.85563  0.04923  1.0000
  H   H18       1.0  0.22076  0.22256  0.46329  1.0000
  H   H19       1.0  0.99031  0.26925  0.27173  1.0000
  H   H20       1.0  0.29603  0.40813  0.25202  1.0000
  H   H21       1.0  0.01354  0.52712  0.96884  1.0000
  H   H22       1.0  0.55253  0.21480  0.86422  1.0000
  H   H23       1.0  0.67045  0.10847  0.87868  1.0000
  H   H24       1.0  0.48705  0.14354  0.95047  1.0000
  H   H25       1.0  0.90707  0.77746  0.53643  1.0000
  H   H26       1.0  0.53115  0.73093  0.72787  1.0000
  H   H27       1.0  0.95578  0.59283  0.74846  1.0000
  H   H28       1.0  0.50915  0.47249  0.03008  1.0000
  H   H29       1.0  0.23315  0.13568  0.21465  1.0000
  H   H30       1.0  0.22186  0.12104  0.10852  1.0000
  H   H31       1.0  0.37008  0.04924  0.14368  1.0000
  H   H32       1.0  0.31526  0.46357  0.77738  1.0000
  H   H33       1.0  0.73752  0.27138  0.73081  1.0000
  H   H34       1.0  0.45106  0.25187  0.59244  1.0000
  H   H35       1.0  0.01883  0.96939  0.47271  1.0000
  H   H36       1.0  0.58197  0.86440  0.78499  1.0000
  H   H37       1.0  0.44950  0.87895  0.89111  1.0000
  H   H38       1.0  0.56098  0.95074  0.85604  1.0000
  H   H39       1.0  0.55635  0.53660  0.22245  1.0000
  H   H40       1.0  0.74036  0.72795  0.26975  1.0000
  H   H41       1.0  0.29512  0.74830  0.40759  1.0000
  H   H42       1.0  0.46019  0.03064  0.52736  1.0000
  H   H43       1.0  0.11770  0.71541  0.36434  1.0000
  H   H44       1.0  0.09132  0.60908  0.37923  1.0000
  H   H45       1.0  0.16789  0.64431  0.45080  1.0000
  H   H46       1.0  0.53112  0.27729  0.03583  1.0000
  H   H47       1.0  0.75981  0.23097  0.22825  1.0000
  H   H48       1.0  0.45314  0.09294  0.24798  1.0000
  H   H49       1.0  0.73725  0.97295  0.53042  1.0000
  H   H50       1.0  0.19731  0.28499  0.63527  1.0000
  H   H51       1.0  0.07913  0.39139  0.62101  1.0000
  H   H52       1.0  0.26244  0.35637  0.54909  1.0000
  H   H53       1.0  0.84246  0.72237  0.96343  1.0000
  H   H54       1.0  0.21760  0.76959  0.77173  1.0000
  H   H55       1.0  0.79228  0.90749  0.75201  1.0000
  H   H56       1.0  0.24038  0.02752  0.46956  1.0000
  C   C1        1.0  0.14697  0.24605  0.84164  1.0000
  C   C2        1.0  0.35385  0.09568  0.75558  1.0000
  C   C3        1.0  0.03347  0.32306  0.89258  1.0000
  C   C4        1.0  0.55842  0.14610  0.88317  1.0000
  C   C5        1.0  0.28077  0.21427  0.85878  1.0000
  C   C6        1.0  0.11613  0.20386  0.78142  1.0000
  C   C7        1.0  0.19097  0.07606  0.67849  1.0000
  C   C8        1.0  0.21984  0.12700  0.73980  1.0000
  C   C9        1.0  0.38604  0.13999  0.81368  1.0000
  C   C10       1.0  0.23364  0.75467  0.15782  1.0000
  C   C11       1.0  0.20539  0.90444  0.24469  1.0000
  C   C12       1.0  0.24729  0.67771  0.10690  1.0000
  C   C13       1.0  0.58831  0.85320  0.11657  1.0000
  C   C14       1.0  0.35322  0.78610  0.14085  1.0000
  C   C15       1.0  0.10049  0.79728  0.21802  1.0000
  C   C16       1.0  0.94505  0.92471  0.32115  1.0000
  C   C17       1.0  0.08635  0.87374  0.25999  1.0000
  C   C18       1.0  0.33977  0.86002  0.18629  1.0000
  C   C19       1.0  0.14207  0.34212  0.25423  1.0000
  C   C20       1.0  0.19971  0.25561  0.40416  1.0000
  C   C21       1.0  0.10504  0.39293  0.17724  1.0000
  C   C22       1.0  0.45464  0.38369  0.35338  1.0000
  C   C23       1.0  0.24410  0.35947  0.28588  1.0000
  C   C24       1.0  0.06939  0.28170  0.29658  1.0000
  C   C25       1.0  0.01611  0.17888  0.42448  1.0000
  C   C26       1.0  0.09648  0.23994  0.37329  1.0000
  C   C27       1.0  0.27600  0.31388  0.35971  1.0000
  C   C28       1.0  0.73824  0.65817  0.74560  1.0000
  C   C29       1.0  0.85979  0.74465  0.59572  1.0000
  C   C30       1.0  0.67509  0.60724  0.82255  1.0000
  C   C31       1.0  0.19186  0.61679  0.64641  1.0000
  C   C32       1.0  0.88933  0.64111  0.71419  1.0000
  C   C33       1.0  0.64761  0.71849  0.70314  1.0000
  C   C34       1.0  0.61991  0.82171  0.57556  1.0000
  C   C35       1.0  0.70994  0.76041  0.62666  1.0000
  C   C36       1.0  0.94983  0.68631  0.64009  1.0000
  C   C37       1.0  0.60317  0.25430  0.65794  1.0000
  C   C38       1.0  0.39537  0.40422  0.74458  1.0000
  C   C39       1.0  0.71747  0.17739  0.60710  1.0000
  C   C40       1.0  0.19120  0.35375  0.61646  1.0000
  C   C41       1.0  0.46928  0.28597  0.64078  1.0000
  C   C42       1.0  0.63349  0.29644  0.71842  1.0000
  C   C43       1.0  0.55908  0.42395  0.82147  1.0000
  C   C44       1.0  0.52952  0.37305  0.76036  1.0000
  C   C45       1.0  0.36352  0.36002  0.68616  1.0000
  C   C46       1.0  0.51549  0.74567  0.34239  1.0000
  C   C47       1.0  0.54421  0.59580  0.25551  1.0000
  C   C48       1.0  0.50142  0.82250  0.39370  1.0000
  C   C49       1.0  0.16130  0.64674  0.38350  1.0000
  C   C50       1.0  0.39598  0.71415  0.35932  1.0000
  C   C51       1.0  0.64861  0.70331  0.28196  1.0000
  C   C52       1.0  0.80442  0.57603  0.17837  1.0000
  C   C53       1.0  0.66303  0.62680  0.23986  1.0000
  C   C54       1.0  0.40971  0.64013  0.31391  1.0000
  C   C55       1.0  0.60782  0.15837  0.24558  1.0000
  C   C56       1.0  0.55120  0.24453  0.09528  1.0000
  C   C57       1.0  0.64470  0.10741  0.32255  1.0000
  C   C58       1.0  0.29625  0.11664  0.14606  1.0000
  C   C59       1.0  0.50564  0.14128  0.21392  1.0000
  C   C60       1.0  0.68096  0.21854  0.20318  1.0000
  C   C61       1.0  0.73439  0.32123  0.07534  1.0000
  C   C62       1.0  0.65412  0.26018  0.12640  1.0000
  C   C63       1.0  0.47464  0.18643  0.13971  1.0000
  C   C64       1.0  0.01035  0.84230  0.75432  1.0000
  C   C65       1.0  0.88941  0.75536  0.90417  1.0000
  C   C66       1.0  0.07339  0.89348  0.67755  1.0000
  C   C67       1.0  0.55713  0.88332  0.85362  1.0000
  C   C68       1.0  0.85928  0.85917  0.78593  1.0000
  C   C69       1.0  0.10118  0.78192  0.79657  1.0000
  C   C70       1.0  0.12996  0.67858  0.92375  1.0000
  C   C71       1.0  0.03922  0.73985  0.87304  1.0000
  C   C72       1.0  0.79911  0.81370  0.85993  1.0000
  O   O1        1.0  0.04478  0.33754  0.96654  1.0000
  O   O2        1.0  0.28443  0.00073  0.65485  1.0000
  O   O3        1.0  0.07821  0.11048  0.65397  1.0000
  O   O4        1.0  0.93313  0.36697  0.85967  1.0000
  O   O5        1.0  0.19160  0.99174  0.51323  1.0000
  O   O6        1.0  0.52189  0.10466  0.82172  1.0000
  O   O7        1.0  0.34687  0.66298  0.03284  1.0000
  O   O8        1.0  0.93933  0.00002  0.34474  1.0000
  O   O9        1.0  0.84203  0.89044  0.34561  1.0000
  O   O10       1.0  0.15781  0.63389  0.13985  1.0000
  O   O11       1.0  0.69598  0.00879  0.48694  1.0000
  O   O12       1.0  0.44892  0.89490  0.17822  1.0000
  O   O13       1.0  0.13009  0.46712  0.16259  1.0000
  O   O14       1.0  0.03410  0.15518  0.49970  1.0000
  O   O15       1.0  0.93711  0.15465  0.39044  1.0000
  O   O16       1.0  0.04902  0.35975  0.13331  1.0000
  O   O17       1.0  0.93387  0.01315  0.50810  1.0000
  O   O18       1.0  0.37724  0.32173  0.39452  1.0000
  O   O19       1.0  0.76033  0.53339  0.83743  1.0000
  O   O20       1.0  0.68988  0.84564  0.50063  1.0000
  O   O21       1.0  0.48244  0.84573  0.60935  1.0000
  O   O22       1.0  0.54156  0.63997  0.86622  1.0000
  O   O23       1.0  0.45470  0.98706  0.49168  1.0000
  O   O24       1.0  0.09382  0.67823  0.60489  1.0000
  O   O25       1.0  0.70639  0.16233  0.53334  1.0000
  O   O26       1.0  0.46598  0.49931  0.84514  1.0000
  O   O27       1.0  0.67227  0.38969  0.84566  1.0000
  O   O28       1.0  0.81835  0.13398  0.63981  1.0000
  O   O29       1.0  0.55823  0.50828  0.98660  1.0000
  O   O30       1.0  0.22756  0.39518  0.67809  1.0000
  O   O31       1.0  0.40099  0.83736  0.46733  1.0000
  O   O32       1.0  0.81078  0.50056  0.15468  1.0000
  O   O33       1.0  0.90707  0.61065  0.15397  1.0000
  O   O34       1.0  0.59120  0.86620  0.36160  1.0000
  O   O35       1.0  0.05331  0.49187  0.01316  1.0000
  O   O36       1.0  0.30073  0.60510  0.32195  1.0000
  O   O37       1.0  0.61805  0.03363  0.33759  1.0000
  O   O38       1.0  0.71732  0.34444  0.99981  1.0000
  O   O39       1.0  0.81243  0.34590  0.10980  1.0000
  O   O40       1.0  0.70188  0.14007  0.36612  1.0000
  O   O41       1.0  0.81693  0.48681  0.99148  1.0000
  O   O42       1.0  0.37428  0.17813  0.10446  1.0000
  O   O43       1.0  0.98771  0.96718  0.66269  1.0000
  O   O44       1.0  0.06055  0.65532  0.99930  1.0000
  O   O45       1.0  0.26727  0.65395  0.88899  1.0000
  O   O46       1.0  0.20703  0.86127  0.63402  1.0000
  O   O47       1.0  0.29475  0.51354  0.00847  1.0000
  O   O48       1.0  0.65511  0.82169  0.89509  1.0000
  C   C73       1.0  0.05256  0.07725  0.96663  1.0000
  O   O49       1.0  0.93728  0.11231  0.95863  1.0000
  O   O50       1.0  0.16756  0.04179  0.97510  1.0000
