data_image0
_chemical_formula_structural       Al16H48C96O96N2
_chemical_formula_sum              "Al16 H48 C96 O96 N2"
_cell_length_a       21.2277
_cell_length_b       21.2286
_cell_length_c       10.6675
_cell_angle_alpha    90.0277
_cell_angle_beta     90.0782
_cell_angle_gamma    90.016

_space_group_name_H-M_alt    "P 1"
_space_group_IT_number       1

loop_
  _space_group_symop_operation_xyz
  'x, y, z'

loop_
  _atom_site_type_symbol
  _atom_site_label
  _atom_site_symmetry_multiplicity
  _atom_site_fract_x
  _atom_site_fract_y
  _atom_site_fract_z
  _atom_site_occupancy
  Al  Al1       1.0  0.31898  0.99878  0.00409  1.0000
  Al  Al2       1.0  0.68222  0.00094  0.99732  1.0000
  Al  Al3       1.0  0.74925  0.93261  0.74774  1.0000
  Al  Al4       1.0  0.24922  0.93252  0.75478  1.0000
  Al  Al5       1.0  0.75097  0.06787  0.24739  1.0000
  Al  Al6       1.0  0.25107  0.06603  0.25336  1.0000
  Al  Al7       1.0  0.18278  0.99996  0.50345  1.0000
  Al  Al8       1.0  0.81762  0.99926  0.49779  1.0000
  Al  Al9       1.0  0.25085  0.56749  0.74712  1.0000
  Al  Al10      1.0  0.18263  0.50065  0.49728  1.0000
  Al  Al11      1.0  0.24937  0.43280  0.24744  1.0000
  Al  Al12      1.0  0.68272  0.50093  0.00276  1.0000
  Al  Al13      1.0  0.75061  0.56767  0.75280  1.0000
  Al  Al14      1.0  0.74895  0.43223  0.25326  1.0000
  Al  Al15      1.0  0.31737  0.49923  0.99677  1.0000
  Al  Al16      1.0  0.81740  0.49914  0.50278  1.0000
  H   H1        1.0  0.21652  0.99655  0.08966  1.0000
  H   H2        1.0  0.25369  0.96450  0.34371  1.0000
  H   H3        1.0  0.24905  0.03488  0.84253  1.0000
  H   H4        1.0  0.28455  0.00303  0.59299  1.0000
  H   H5        1.0  0.75587  0.96628  0.15556  1.0000
  H   H6        1.0  0.71628  0.99412  0.40550  1.0000
  H   H7        1.0  0.74421  0.03432  0.65527  1.0000
  H   H8        1.0  0.78405  0.00506  0.90743  1.0000
  H   H9        1.0  0.75399  0.46575  0.84231  1.0000
  H   H10       1.0  0.78459  0.50373  0.09242  1.0000
  H   H11       1.0  0.74553  0.53439  0.34284  1.0000
  H   H12       1.0  0.71548  0.49588  0.59217  1.0000
  H   H13       1.0  0.21568  0.49742  0.90931  1.0000
  H   H14       1.0  0.24637  0.53438  0.15757  1.0000
  H   H15       1.0  0.28413  0.50342  0.40860  1.0000
  H   H16       1.0  0.25369  0.46549  0.65784  1.0000
  H   H17       1.0  0.06462  0.89680  0.95349  1.0000
  H   H18       1.0  0.93454  0.89697  0.95311  1.0000
  H   H19       1.0  0.56633  0.10562  0.45024  1.0000
  H   H20       1.0  0.43631  0.10526  0.45197  1.0000
  H   H21       1.0  0.35534  0.68362  0.19893  1.0000
  H   H22       1.0  0.35644  0.81380  0.20060  1.0000
  H   H23       1.0  0.93569  0.60079  0.95487  1.0000
  H   H24       1.0  0.06597  0.60012  0.95450  1.0000
  H   H25       1.0  0.93412  0.39639  0.04762  1.0000
  H   H26       1.0  0.06425  0.39624  0.04740  1.0000
  H   H27       1.0  0.06647  0.10102  0.04980  1.0000
  H   H28       1.0  0.93615  0.10320  0.04993  1.0000
  H   H29       1.0  0.14877  0.81589  0.29965  1.0000
  H   H30       1.0  0.14796  0.68559  0.29867  1.0000
  H   H31       1.0  0.56433  0.89568  0.54785  1.0000
  H   H32       1.0  0.43430  0.89593  0.54802  1.0000
  H   H33       1.0  0.64602  0.18579  0.79757  1.0000
  H   H34       1.0  0.64667  0.31594  0.79779  1.0000
  H   H35       1.0  0.85347  0.31435  0.70316  1.0000
  H   H36       1.0  0.85372  0.18413  0.70196  1.0000
  H   H37       1.0  0.35540  0.31380  0.80283  1.0000
  H   H38       1.0  0.35521  0.18354  0.80412  1.0000
  H   H39       1.0  0.14727  0.18499  0.69963  1.0000
  H   H40       1.0  0.14810  0.31524  0.69961  1.0000
  H   H41       1.0  0.64561  0.81610  0.20080  1.0000
  H   H42       1.0  0.64526  0.68591  0.20147  1.0000
  H   H43       1.0  0.85204  0.81457  0.29751  1.0000
  H   H44       1.0  0.85181  0.68426  0.29739  1.0000
  H   H45       1.0  0.56524  0.60431  0.54856  1.0000
  H   H46       1.0  0.43501  0.60430  0.54856  1.0000
  H   H47       1.0  0.56453  0.39728  0.45078  1.0000
  H   H48       1.0  0.43437  0.39878  0.45161  1.0000
  C   C1        1.0  0.61357  0.95827  0.77978  1.0000
  C   C2        1.0  0.55134  0.94819  0.72299  1.0000
  C   C3        1.0  0.53279  0.91669  0.61566  1.0000
  C   C4        1.0  0.38606  0.95836  0.78125  1.0000
  C   C5        1.0  0.44798  0.94843  0.72326  1.0000
  C   C6        1.0  0.46606  0.91682  0.61583  1.0000
  C   C7        1.0  0.61438  0.04184  0.21919  1.0000
  C   C8        1.0  0.55238  0.05201  0.27660  1.0000
  C   C9        1.0  0.53443  0.08412  0.38349  1.0000
  C   C10       1.0  0.38678  0.04103  0.22186  1.0000
  C   C11       1.0  0.44904  0.05178  0.27793  1.0000
  C   C12       1.0  0.46773  0.08398  0.38432  1.0000
  C   C13       1.0  0.11366  0.95831  0.72089  1.0000
  C   C14       1.0  0.05140  0.94859  0.77759  1.0000
  C   C15       1.0  0.03298  0.91759  0.88542  1.0000
  C   C16       1.0  0.88591  0.95893  0.71979  1.0000
  C   C17       1.0  0.94802  0.94888  0.77728  1.0000
  C   C18       1.0  0.96624  0.91771  0.88519  1.0000
  C   C19       1.0  0.11444  0.03949  0.28241  1.0000
  C   C20       1.0  0.05223  0.05037  0.22648  1.0000
  C   C21       1.0  0.03439  0.08136  0.11823  1.0000
  C   C22       1.0  0.88653  0.04200  0.28148  1.0000
  C   C23       1.0  0.94900  0.05201  0.22640  1.0000
  C   C24       1.0  0.96769  0.08242  0.11818  1.0000
  C   C25       1.0  0.20941  0.86368  0.53389  1.0000
  C   C26       1.0  0.19931  0.80165  0.47686  1.0000
  C   C27       1.0  0.16874  0.78384  0.36796  1.0000
  C   C28       1.0  0.20895  0.63602  0.53064  1.0000
  C   C29       1.0  0.19866  0.69847  0.47585  1.0000
  C   C30       1.0  0.16832  0.71715  0.36742  1.0000
  C   C31       1.0  0.20889  0.13533  0.46964  1.0000
  C   C32       1.0  0.19860  0.19810  0.52365  1.0000
  C   C33       1.0  0.16780  0.21669  0.63147  1.0000
  C   C34       1.0  0.21015  0.36382  0.46787  1.0000
  C   C35       1.0  0.19939  0.30145  0.52340  1.0000
  C   C36       1.0  0.16835  0.28339  0.63139  1.0000
  C   C37       1.0  0.69849  0.80232  0.02652  1.0000
  C   C38       1.0  0.66667  0.78423  0.13362  1.0000
  C   C39       1.0  0.69809  0.69892  0.02686  1.0000
  C   C40       1.0  0.66644  0.71749  0.13387  1.0000
  C   C41       1.0  0.70849  0.86442  0.96917  1.0000
  C   C42       1.0  0.70826  0.63660  0.97032  1.0000
  C   C43       1.0  0.70824  0.13656  0.02986  1.0000
  C   C44       1.0  0.70868  0.36423  0.03107  1.0000
  C   C45       1.0  0.69823  0.19882  0.97312  1.0000
  C   C46       1.0  0.66704  0.21738  0.86546  1.0000
  C   C47       1.0  0.69885  0.30220  0.97330  1.0000
  C   C48       1.0  0.66743  0.28411  0.86555  1.0000
  C   C49       1.0  0.30226  0.80143  0.02715  1.0000
  C   C50       1.0  0.33457  0.78248  0.13325  1.0000
  C   C51       1.0  0.30131  0.69804  0.02592  1.0000
  C   C52       1.0  0.33395  0.71576  0.13252  1.0000
  C   C53       1.0  0.29219  0.86404  0.97199  1.0000
  C   C54       1.0  0.29053  0.63603  0.96865  1.0000
  C   C55       1.0  0.29122  0.13498  0.03301  1.0000
  C   C56       1.0  0.29202  0.36351  0.03162  1.0000
  C   C57       1.0  0.30187  0.19751  0.97781  1.0000
  C   C58       1.0  0.33399  0.21553  0.87099  1.0000
  C   C59       1.0  0.30228  0.30088  0.97698  1.0000
  C   C60       1.0  0.33415  0.28224  0.87039  1.0000
  C   C61       1.0  0.79247  0.86355  0.53165  1.0000
  C   C62       1.0  0.80315  0.80117  0.47629  1.0000
  C   C63       1.0  0.83263  0.78280  0.36679  1.0000
  C   C64       1.0  0.79206  0.63571  0.53212  1.0000
  C   C65       1.0  0.80280  0.69790  0.47617  1.0000
  C   C66       1.0  0.83241  0.71607  0.36670  1.0000
  C   C67       1.0  0.79163  0.13586  0.46919  1.0000
  C   C68       1.0  0.80146  0.19793  0.52669  1.0000
  C   C69       1.0  0.83278  0.21602  0.63453  1.0000
  C   C70       1.0  0.79086  0.36361  0.47131  1.0000
  C   C71       1.0  0.80131  0.30130  0.52753  1.0000
  C   C72       1.0  0.83275  0.28276  0.63495  1.0000
  C   C73       1.0  0.11353  0.45800  0.28021  1.0000
  C   C74       1.0  0.05120  0.44836  0.22308  1.0000
  C   C75       1.0  0.03269  0.41720  0.11532  1.0000
  C   C76       1.0  0.88564  0.45829  0.28107  1.0000
  C   C77       1.0  0.94773  0.44859  0.22317  1.0000
  C   C78       1.0  0.96592  0.41728  0.11542  1.0000
  C   C79       1.0  0.11416  0.54192  0.71799  1.0000
  C   C80       1.0  0.05200  0.55236  0.77436  1.0000
  C   C81       1.0  0.03399  0.58133  0.88469  1.0000
  C   C82       1.0  0.88635  0.54229  0.71915  1.0000
  C   C83       1.0  0.94874  0.55280  0.77465  1.0000
  C   C84       1.0  0.96726  0.58162  0.88491  1.0000
  C   C85       1.0  0.61362  0.45827  0.21862  1.0000
  C   C86       1.0  0.55128  0.44827  0.27412  1.0000
  C   C87       1.0  0.53286  0.41792  0.38260  1.0000
  C   C88       1.0  0.38590  0.46028  0.21832  1.0000
  C   C89       1.0  0.44806  0.44950  0.27457  1.0000
  C   C90       1.0  0.46617  0.41869  0.38293  1.0000
  C   C91       1.0  0.61407  0.54168  0.78098  1.0000
  C   C92       1.0  0.55193  0.55163  0.72341  1.0000
  C   C93       1.0  0.53355  0.58321  0.61607  1.0000
  C   C94       1.0  0.38637  0.54144  0.78003  1.0000
  C   C95       1.0  0.44854  0.55166  0.72333  1.0000
  C   C96       1.0  0.46680  0.58322  0.61603  1.0000
  O   O1        1.0  0.74623  0.00700  0.11878  1.0000
  O   O2        1.0  0.61612  0.00916  0.11924  1.0000
  O   O3        1.0  0.68092  0.09072  0.97452  1.0000
  O   O4        1.0  0.68170  0.91052  0.02570  1.0000
  O   O5        1.0  0.74334  0.99643  0.86921  1.0000
  O   O6        1.0  0.61602  0.99186  0.87873  1.0000
  O   O7        1.0  0.65940  0.93098  0.72469  1.0000
  O   O8        1.0  0.49983  0.96852  0.78836  1.0000
  O   O9        1.0  0.38437  0.99118  0.88102  1.0000
  O   O10       1.0  0.33988  0.93133  0.72521  1.0000
  O   O11       1.0  0.66059  0.06849  0.27570  1.0000
  O   O12       1.0  0.50047  0.03139  0.21226  1.0000
  O   O13       1.0  0.38431  0.00630  0.12452  1.0000
  O   O14       1.0  0.34087  0.06892  0.27537  1.0000
  O   O15       1.0  0.24663  0.00559  0.38140  1.0000
  O   O16       1.0  0.11669  0.00639  0.38161  1.0000
  O   O17       1.0  0.18078  0.09011  0.52515  1.0000
  O   O18       1.0  0.24372  0.99556  0.63137  1.0000
  O   O19       1.0  0.11623  0.99118  0.62117  1.0000
  O   O20       1.0  0.15943  0.93131  0.77686  1.0000
  O   O21       1.0  0.99981  0.96863  0.71182  1.0000
  O   O22       1.0  0.18397  0.90972  0.47497  1.0000
  O   O23       1.0  0.88391  0.99108  0.61927  1.0000
  O   O24       1.0  0.83975  0.93264  0.77669  1.0000
  O   O25       1.0  0.16049  0.06587  0.22516  1.0000
  O   O26       1.0  0.00031  0.03163  0.29291  1.0000
  O   O27       1.0  0.88388  0.00847  0.38033  1.0000
  O   O28       1.0  0.84083  0.06897  0.22500  1.0000
  O   O29       1.0  0.24090  0.86580  0.63533  1.0000
  O   O30       1.0  0.21843  0.74981  0.54298  1.0000
  O   O31       1.0  0.24364  0.63315  0.62805  1.0000
  O   O32       1.0  0.18107  0.59055  0.47530  1.0000
  O   O33       1.0  0.25576  0.99393  0.88097  1.0000
  O   O34       1.0  0.25644  0.86784  0.87625  1.0000
  O   O35       1.0  0.24374  0.13159  0.37290  1.0000
  O   O36       1.0  0.21867  0.24957  0.45721  1.0000
  O   O37       1.0  0.24335  0.36627  0.36878  1.0000
  O   O38       1.0  0.18385  0.40986  0.52540  1.0000
  O   O39       1.0  0.25697  0.00296  0.13058  1.0000
  O   O40       1.0  0.25706  0.13170  0.13067  1.0000
  O   O41       1.0  0.68107  0.59073  0.02557  1.0000
  O   O42       1.0  0.74106  0.86641  0.86934  1.0000
  O   O43       1.0  0.71860  0.75044  0.96162  1.0000
  O   O44       1.0  0.74175  0.63404  0.87147  1.0000
  O   O45       1.0  0.75371  0.99343  0.61899  1.0000
  O   O46       1.0  0.75892  0.86611  0.63040  1.0000
  O   O47       1.0  0.74183  0.13408  0.12878  1.0000
  O   O48       1.0  0.71866  0.25035  0.03859  1.0000
  O   O49       1.0  0.74098  0.36615  0.13151  1.0000
  O   O50       1.0  0.75698  0.00385  0.36880  1.0000
  O   O51       1.0  0.75910  0.13385  0.36907  1.0000
  O   O52       1.0  0.68210  0.41036  0.97431  1.0000
  O   O53       1.0  0.32174  0.90908  0.02532  1.0000
  O   O54       1.0  0.31701  0.58986  0.02541  1.0000
  O   O55       1.0  0.28112  0.75010  0.96180  1.0000
  O   O56       1.0  0.25762  0.63390  0.86899  1.0000
  O   O57       1.0  0.28161  0.24944  0.04282  1.0000
  O   O58       1.0  0.25844  0.36636  0.13027  1.0000
  O   O59       1.0  0.31889  0.08948  0.97608  1.0000
  O   O60       1.0  0.31903  0.40919  0.97520  1.0000
  O   O61       1.0  0.81892  0.90942  0.47499  1.0000
  O   O62       1.0  0.78424  0.74963  0.54336  1.0000
  O   O63       1.0  0.75904  0.63364  0.63138  1.0000
  O   O64       1.0  0.81823  0.58958  0.47462  1.0000
  O   O65       1.0  0.81830  0.08980  0.52599  1.0000
  O   O66       1.0  0.78126  0.24972  0.46169  1.0000
  O   O67       1.0  0.75624  0.36634  0.37384  1.0000
  O   O68       1.0  0.81893  0.40936  0.52550  1.0000
  O   O69       1.0  0.24344  0.49654  0.36898  1.0000
  O   O70       1.0  0.11608  0.49114  0.37967  1.0000
  O   O71       1.0  0.15936  0.43077  0.22488  1.0000
  O   O72       1.0  0.99961  0.46855  0.28854  1.0000
  O   O73       1.0  0.24641  0.50633  0.61923  1.0000
  O   O74       1.0  0.11636  0.50885  0.61869  1.0000
  O   O75       1.0  0.88363  0.49100  0.38088  1.0000
  O   O76       1.0  0.83951  0.43119  0.22502  1.0000
  O   O77       1.0  0.16021  0.56857  0.77513  1.0000
  O   O78       1.0  0.00018  0.53427  0.70681  1.0000
  O   O79       1.0  0.88375  0.50857  0.62039  1.0000
  O   O80       1.0  0.84057  0.56902  0.77537  1.0000
  O   O81       1.0  0.74379  0.49621  0.13094  1.0000
  O   O82       1.0  0.61634  0.49192  0.11995  1.0000
  O   O83       1.0  0.65926  0.43114  0.27491  1.0000
  O   O84       1.0  0.49982  0.46844  0.20793  1.0000
  O   O85       1.0  0.38371  0.49322  0.11879  1.0000
  O   O86       1.0  0.33987  0.43399  0.27557  1.0000
  O   O87       1.0  0.74631  0.50649  0.88085  1.0000
  O   O88       1.0  0.61625  0.50902  0.88080  1.0000
  O   O89       1.0  0.66010  0.56852  0.72446  1.0000
  O   O90       1.0  0.50022  0.53133  0.78842  1.0000
  O   O91       1.0  0.38376  0.50747  0.87838  1.0000
  O   O92       1.0  0.34062  0.56901  0.72507  1.0000
  O   O93       1.0  0.75366  0.49359  0.38083  1.0000
  O   O94       1.0  0.75624  0.50368  0.63084  1.0000
  O   O95       1.0  0.25347  0.49354  0.11882  1.0000
  O   O96       1.0  0.25624  0.50364  0.86898  1.0000
  N   N1        1.0  0.98762  0.88378  0.36375  1.0000
  N   N2        1.0  0.98458  0.88143  0.46843  1.0000
