data_image0
_chemical_formula_structural       Al16H80C128O80N2
_chemical_formula_sum              "Al16 H80 C128 O80 N2"
_cell_length_a       21.6372
_cell_length_b       21.6365
_cell_length_c       10.2881
_cell_angle_alpha    90.0009
_cell_angle_beta     89.9991
_cell_angle_gamma    90.0085

_space_group_name_H-M_alt    "P 1"
_space_group_IT_number       1

loop_
  _space_group_symop_operation_xyz
  'x, y, z'

loop_
  _atom_site_type_symbol
  _atom_site_label
  _atom_site_symmetry_multiplicity
  _atom_site_fract_x
  _atom_site_fract_y
  _atom_site_fract_z
  _atom_site_occupancy
  Al  Al1       1.0  0.68004  0.99958  0.00142  1.0000
  Al  Al2       1.0  0.32008  0.99959  0.00158  1.0000
  Al  Al3       1.0  0.75038  0.92996  0.75129  1.0000
  Al  Al4       1.0  0.24963  0.92999  0.75144  1.0000
  Al  Al5       1.0  0.74970  0.07002  0.25132  1.0000
  Al  Al6       1.0  0.25033  0.07003  0.25150  1.0000
  Al  Al7       1.0  0.17992  0.00043  0.50156  1.0000
  Al  Al8       1.0  0.82005  0.00037  0.50129  1.0000
  Al  Al9       1.0  0.24969  0.57002  0.75075  1.0000
  Al  Al10      1.0  0.18003  0.49977  0.50071  1.0000
  Al  Al11      1.0  0.25030  0.43012  0.25064  1.0000
  Al  Al12      1.0  0.75044  0.57007  0.75147  1.0000
  Al  Al13      1.0  0.67992  0.50040  0.00147  1.0000
  Al  Al14      1.0  0.74952  0.42995  0.25155  1.0000
  Al  Al15      1.0  0.32003  0.50031  0.00065  1.0000
  Al  Al16      1.0  0.82001  0.49956  0.50151  1.0000
  H   H1        1.0  0.72037  0.49736  0.58576  1.0000
  H   H2        1.0  0.74744  0.52970  0.33588  1.0000
  H   H3        1.0  0.24714  0.02977  0.83657  1.0000
  H   H4        1.0  0.28000  0.49842  0.58337  1.0000
  H   H5        1.0  0.25124  0.53032  0.33238  1.0000
  H   H6        1.0  0.75236  0.47026  0.83543  1.0000
  H   H7        1.0  0.77974  0.50213  0.08524  1.0000
  H   H8        1.0  0.24794  0.47009  0.83379  1.0000
  H   H9        1.0  0.74817  0.97013  0.33459  1.0000
  H   H10       1.0  0.78003  0.99860  0.08408  1.0000
  H   H11       1.0  0.75173  0.02986  0.83445  1.0000
  H   H12       1.0  0.72015  0.00178  0.58445  1.0000
  H   H13       1.0  0.22041  0.99631  0.08687  1.0000
  H   H14       1.0  0.27963  0.00327  0.58638  1.0000
  H   H15       1.0  0.25291  0.97024  0.33663  1.0000
  H   H16       1.0  0.22005  0.50173  0.08279  1.0000
  H   H17       1.0  0.59942  0.91623  0.52625  1.0000
  H   H18       1.0  0.40000  0.91621  0.52664  1.0000
  H   H19       1.0  0.49975  0.98171  0.86094  1.0000
  H   H20       1.0  0.49969  0.89839  0.40936  1.0000
  H   H21       1.0  0.60003  0.08510  0.47141  1.0000
  H   H22       1.0  0.40044  0.08530  0.47153  1.0000
  H   H23       1.0  0.50014  0.01975  0.13718  1.0000
  H   H24       1.0  0.50026  0.10263  0.58901  1.0000
  H   H25       1.0  0.09965  0.91523  0.97192  1.0000
  H   H26       1.0  0.90006  0.91502  0.97168  1.0000
  H   H27       1.0  0.99984  0.98055  0.63755  1.0000
  H   H28       1.0  0.99986  0.89782  0.08944  1.0000
  H   H29       1.0  0.10005  0.08419  0.02682  1.0000
  H   H30       1.0  0.90063  0.08430  0.02605  1.0000
  H   H31       1.0  0.00009  0.01776  0.36003  1.0000
  H   H32       1.0  0.00043  0.10230  0.90953  1.0000
  H   H33       1.0  0.16604  0.85011  0.27686  1.0000
  H   H34       1.0  0.16587  0.65068  0.27603  1.0000
  H   H35       1.0  0.23198  0.75015  0.61040  1.0000
  H   H36       1.0  0.14802  0.75049  0.15939  1.0000
  H   H37       1.0  0.16499  0.15046  0.72161  1.0000
  H   H38       1.0  0.16498  0.35006  0.72134  1.0000
  H   H39       1.0  0.23048  0.25016  0.38722  1.0000
  H   H40       1.0  0.14764  0.25030  0.83911  1.0000
  H   H41       1.0  0.66517  0.84985  0.22163  1.0000
  H   H42       1.0  0.66507  0.65028  0.22178  1.0000
  H   H43       1.0  0.73028  0.75001  0.88718  1.0000
  H   H44       1.0  0.64778  0.75009  0.33931  1.0000
  H   H45       1.0  0.66583  0.15038  0.77622  1.0000
  H   H46       1.0  0.66571  0.34981  0.77677  1.0000
  H   H47       1.0  0.73216  0.25000  0.11014  1.0000
  H   H48       1.0  0.64771  0.25014  0.65957  1.0000
  H   H49       1.0  0.33482  0.84968  0.22147  1.0000
  H   H50       1.0  0.33506  0.65009  0.22134  1.0000
  H   H51       1.0  0.26952  0.74982  0.88710  1.0000
  H   H52       1.0  0.35224  0.74991  0.33911  1.0000
  H   H53       1.0  0.33441  0.14993  0.77702  1.0000
  H   H54       1.0  0.33412  0.34939  0.77590  1.0000
  H   H55       1.0  0.26782  0.24992  0.11010  1.0000
  H   H56       1.0  0.35232  0.24955  0.65952  1.0000
  H   H57       1.0  0.83420  0.84948  0.27621  1.0000
  H   H58       1.0  0.83439  0.65000  0.27705  1.0000
  H   H59       1.0  0.76789  0.74992  0.61023  1.0000
  H   H60       1.0  0.85237  0.74967  0.15970  1.0000
  H   H61       1.0  0.83521  0.15015  0.72157  1.0000
  H   H62       1.0  0.83479  0.34973  0.72173  1.0000
  H   H63       1.0  0.76934  0.24980  0.38755  1.0000
  H   H64       1.0  0.85230  0.24998  0.83937  1.0000
  H   H65       1.0  0.09938  0.41605  0.02598  1.0000
  H   H66       1.0  0.89994  0.41619  0.02660  1.0000
  H   H67       1.0  0.99990  0.48194  0.36048  1.0000
  H   H68       1.0  0.99957  0.39828  0.90918  1.0000
  H   H69       1.0  0.10002  0.58485  0.97144  1.0000
  H   H70       1.0  0.90045  0.58544  0.97121  1.0000
  H   H71       1.0  0.00015  0.51953  0.63720  1.0000
  H   H72       1.0  0.00026  0.60256  0.08895  1.0000
  H   H73       1.0  0.59954  0.41487  0.47158  1.0000
  H   H74       1.0  0.39995  0.41500  0.47132  1.0000
  H   H75       1.0  0.49985  0.48067  0.13742  1.0000
  H   H76       1.0  0.49970  0.39755  0.58904  1.0000
  H   H77       1.0  0.59998  0.58397  0.52643  1.0000
  H   H78       1.0  0.40055  0.58425  0.52602  1.0000
  H   H79       1.0  0.50009  0.51769  0.85985  1.0000
  H   H80       1.0  0.50033  0.60208  0.40920  1.0000
  C   C1        1.0  0.55548  0.92638  0.57284  1.0000
  C   C2        1.0  0.55582  0.95014  0.69997  1.0000
  C   C3        1.0  0.61578  0.95835  0.76944  1.0000
  C   C4        1.0  0.49989  0.96333  0.76256  1.0000
  C   C5        1.0  0.49974  0.91566  0.50862  1.0000
  C   C6        1.0  0.44404  0.92635  0.57291  1.0000
  C   C7        1.0  0.44396  0.95014  0.69997  1.0000
  C   C8        1.0  0.38411  0.95836  0.76956  1.0000
  C   C9        1.0  0.55595  0.07506  0.42517  1.0000
  C   C10       1.0  0.55604  0.05146  0.29795  1.0000
  C   C11       1.0  0.61580  0.04333  0.22824  1.0000
  C   C12       1.0  0.50012  0.03821  0.23548  1.0000
  C   C13       1.0  0.50022  0.08563  0.48954  1.0000
  C   C14       1.0  0.44446  0.07517  0.42516  1.0000
  C   C15       1.0  0.44422  0.05154  0.29796  1.0000
  C   C16       1.0  0.38439  0.04338  0.22834  1.0000
  C   C17       1.0  0.05562  0.92526  0.92553  1.0000
  C   C18       1.0  0.05582  0.94877  0.79824  1.0000
  C   C19       1.0  0.11564  0.95675  0.72847  1.0000
  C   C20       1.0  0.99991  0.96207  0.73581  1.0000
  C   C21       1.0  0.99987  0.91480  0.98995  1.0000
  C   C22       1.0  0.94412  0.92521  0.92550  1.0000
  C   C23       1.0  0.94400  0.94878  0.79827  1.0000
  C   C24       1.0  0.88425  0.95675  0.72835  1.0000
  C   C25       1.0  0.05600  0.07389  0.07287  1.0000
  C   C26       1.0  0.05606  0.04979  0.19970  1.0000
  C   C27       1.0  0.11588  0.04160  0.26945  1.0000
  C   C28       1.0  0.00008  0.03645  0.26193  1.0000
  C   C29       1.0  0.00032  0.08475  0.00859  1.0000
  C   C30       1.0  0.94454  0.07394  0.07260  1.0000
  C   C31       1.0  0.94417  0.04986  0.19948  1.0000
  C   C32       1.0  0.88424  0.04164  0.26909  1.0000
  C   C33       1.0  0.17623  0.80605  0.32292  1.0000
  C   C34       1.0  0.20018  0.80613  0.44985  1.0000
  C   C35       1.0  0.20838  0.86595  0.51957  1.0000
  C   C36       1.0  0.21344  0.75016  0.51217  1.0000
  C   C37       1.0  0.16544  0.75038  0.25855  1.0000
  C   C38       1.0  0.17617  0.69460  0.32260  1.0000
  C   C39       1.0  0.20010  0.69425  0.44958  1.0000
  C   C40       1.0  0.20831  0.63429  0.51900  1.0000
  C   C41       1.0  0.17510  0.19448  0.67522  1.0000
  C   C42       1.0  0.19868  0.19424  0.54798  1.0000
  C   C43       1.0  0.20669  0.13440  0.47830  1.0000
  C   C44       1.0  0.21198  0.25016  0.48548  1.0000
  C   C45       1.0  0.16462  0.25025  0.73960  1.0000
  C   C46       1.0  0.17511  0.30599  0.67515  1.0000
  C   C47       1.0  0.19871  0.30609  0.54791  1.0000
  C   C48       1.0  0.20675  0.36586  0.47801  1.0000
  C   C49       1.0  0.67519  0.80579  0.17534  1.0000
  C   C50       1.0  0.69870  0.80593  0.04805  1.0000
  C   C51       1.0  0.70672  0.86571  0.97829  1.0000
  C   C52       1.0  0.71191  0.75002  0.98554  1.0000
  C   C53       1.0  0.66471  0.75006  0.23979  1.0000
  C   C54       1.0  0.67514  0.69431  0.17539  1.0000
  C   C55       1.0  0.69865  0.69412  0.04811  1.0000
  C   C56       1.0  0.70668  0.63433  0.97842  1.0000
  C   C57       1.0  0.67611  0.19434  0.82269  1.0000
  C   C58       1.0  0.70017  0.19408  0.94956  1.0000
  C   C59       1.0  0.70840  0.13417  0.01919  1.0000
  C   C60       1.0  0.71352  0.25001  0.01201  1.0000
  C   C61       1.0  0.66524  0.25009  0.75864  1.0000
  C   C62       1.0  0.67604  0.30580  0.82292  1.0000
  C   C63       1.0  0.70013  0.30598  0.94975  1.0000
  C   C64       1.0  0.70835  0.36585  0.01943  1.0000
  C   C65       1.0  0.32479  0.80561  0.17519  1.0000
  C   C66       1.0  0.30129  0.80579  0.04791  1.0000
  C   C67       1.0  0.29331  0.86562  0.97827  1.0000
  C   C68       1.0  0.28799  0.74989  0.98540  1.0000
  C   C69       1.0  0.33530  0.74988  0.23960  1.0000
  C   C70       1.0  0.32490  0.69413  0.17511  1.0000
  C   C71       1.0  0.30130  0.69398  0.04788  1.0000
  C   C72       1.0  0.29329  0.63421  0.97804  1.0000
  C   C73       1.0  0.32400  0.19399  0.82294  1.0000
  C   C74       1.0  0.29987  0.19392  0.94973  1.0000
  C   C75       1.0  0.29162  0.13408  0.01945  1.0000
  C   C76       1.0  0.28650  0.24990  0.01197  1.0000
  C   C77       1.0  0.33479  0.24967  0.75859  1.0000
  C   C78       1.0  0.32391  0.30546  0.82253  1.0000
  C   C79       1.0  0.29987  0.30581  0.94943  1.0000
  C   C80       1.0  0.29164  0.36576  0.01890  1.0000
  C   C81       1.0  0.82396  0.80553  0.32275  1.0000
  C   C82       1.0  0.79992  0.80586  0.44964  1.0000
  C   C83       1.0  0.79164  0.86579  0.51917  1.0000
  C   C84       1.0  0.78656  0.74994  0.51211  1.0000
  C   C85       1.0  0.83483  0.74976  0.25875  1.0000
  C   C86       1.0  0.82401  0.69406  0.32302  1.0000
  C   C87       1.0  0.79989  0.69397  0.44982  1.0000
  C   C88       1.0  0.79163  0.63412  0.51949  1.0000
  C   C89       1.0  0.82494  0.19418  0.67540  1.0000
  C   C90       1.0  0.80129  0.19403  0.54822  1.0000
  C   C91       1.0  0.79331  0.13426  0.47837  1.0000
  C   C92       1.0  0.78790  0.24992  0.48576  1.0000
  C   C93       1.0  0.83532  0.24994  0.73987  1.0000
  C   C94       1.0  0.82475  0.30567  0.67545  1.0000
  C   C95       1.0  0.80120  0.30584  0.54819  1.0000
  C   C96       1.0  0.79324  0.36565  0.47842  1.0000
  C   C97       1.0  0.05544  0.42631  0.07251  1.0000
  C   C98       1.0  0.05579  0.45017  0.19956  1.0000
  C   C99       1.0  0.11575  0.45837  0.26904  1.0000
  C   C100      1.0  0.99989  0.46345  0.26219  1.0000
  C   C101      1.0  0.99967  0.41561  0.00840  1.0000
  C   C102      1.0  0.94399  0.42635  0.07280  1.0000
  C   C103      1.0  0.94391  0.45021  0.19982  1.0000
  C   C104      1.0  0.88406  0.45839  0.26950  1.0000
  C   C105      1.0  0.05595  0.57487  0.92514  1.0000
  C   C106      1.0  0.05605  0.55129  0.79790  1.0000
  C   C107      1.0  0.11582  0.54326  0.72805  1.0000
  C   C108      1.0  0.00012  0.53807  0.73542  1.0000
  C   C109      1.0  0.00023  0.58555  0.98947  1.0000
  C   C110      1.0  0.94447  0.57518  0.92500  1.0000
  C   C111      1.0  0.94423  0.55148  0.79786  1.0000
  C   C112      1.0  0.88437  0.54335  0.72832  1.0000
  C   C113      1.0  0.55551  0.42505  0.42527  1.0000
  C   C114      1.0  0.55575  0.44869  0.29808  1.0000
  C   C115      1.0  0.61558  0.45669  0.22841  1.0000
  C   C116      1.0  0.49986  0.46209  0.23562  1.0000
  C   C117      1.0  0.49974  0.41458  0.48960  1.0000
  C   C118      1.0  0.44402  0.42512  0.42515  1.0000
  C   C119      1.0  0.44393  0.44879  0.29800  1.0000
  C   C120      1.0  0.38419  0.45678  0.22807  1.0000
  C   C121      1.0  0.55594  0.57371  0.57257  1.0000
  C   C122      1.0  0.55604  0.54970  0.69947  1.0000
  C   C123      1.0  0.61587  0.54157  0.76933  1.0000
  C   C124      1.0  0.50006  0.53636  0.76174  1.0000
  C   C125      1.0  0.50026  0.58459  0.50831  1.0000
  C   C126      1.0  0.44449  0.57385  0.57243  1.0000
  C   C127      1.0  0.44415  0.54979  0.69930  1.0000
  C   C128      1.0  0.38420  0.54162  0.76884  1.0000
  O   O1        1.0  0.74411  0.99130  0.88020  1.0000
  O   O2        1.0  0.61582  0.99071  0.87332  1.0000
  O   O3        1.0  0.66253  0.93120  0.71862  1.0000
  O   O4        1.0  0.38411  0.99072  0.87343  1.0000
  O   O5        1.0  0.33738  0.93119  0.71874  1.0000
  O   O6        1.0  0.74148  0.00589  0.13014  1.0000
  O   O7        1.0  0.61599  0.00950  0.12612  1.0000
  O   O8        1.0  0.68120  0.08741  0.96851  1.0000
  O   O9        1.0  0.67825  0.91211  0.02592  1.0000
  O   O10       1.0  0.66222  0.07177  0.27580  1.0000
  O   O11       1.0  0.38422  0.00958  0.12614  1.0000
  O   O12       1.0  0.33793  0.07174  0.27598  1.0000
  O   O13       1.0  0.24100  0.99407  0.63050  1.0000
  O   O14       1.0  0.11583  0.99047  0.62618  1.0000
  O   O15       1.0  0.16205  0.92829  0.77604  1.0000
  O   O16       1.0  0.88408  0.99049  0.62608  1.0000
  O   O17       1.0  0.83786  0.92821  0.77583  1.0000
  O   O18       1.0  0.24411  0.00896  0.38075  1.0000
  O   O19       1.0  0.11587  0.00929  0.37341  1.0000
  O   O20       1.0  0.17824  0.08798  0.52600  1.0000
  O   O21       1.0  0.18119  0.91268  0.46880  1.0000
  O   O22       1.0  0.16261  0.06879  0.21866  1.0000
  O   O23       1.0  0.88418  0.00925  0.37294  1.0000
  O   O24       1.0  0.83748  0.06884  0.21847  1.0000
  O   O25       1.0  0.24072  0.86589  0.62346  1.0000
  O   O26       1.0  0.24076  0.63418  0.62274  1.0000
  O   O27       1.0  0.18109  0.58755  0.46834  1.0000
  O   O28       1.0  0.25591  0.99104  0.88067  1.0000
  O   O29       1.0  0.25954  0.86585  0.87608  1.0000
  O   O30       1.0  0.24044  0.13415  0.37607  1.0000
  O   O31       1.0  0.24048  0.36604  0.37577  1.0000
  O   O32       1.0  0.17827  0.41228  0.52557  1.0000
  O   O33       1.0  0.25901  0.00591  0.13065  1.0000
  O   O34       1.0  0.25926  0.13411  0.12330  1.0000
  O   O35       1.0  0.74047  0.86593  0.87605  1.0000
  O   O36       1.0  0.74047  0.63413  0.87625  1.0000
  O   O37       1.0  0.67818  0.58793  0.02603  1.0000
  O   O38       1.0  0.75871  0.99411  0.63015  1.0000
  O   O39       1.0  0.75924  0.86583  0.62299  1.0000
  O   O40       1.0  0.74076  0.13415  0.12306  1.0000
  O   O41       1.0  0.74072  0.36586  0.12330  1.0000
  O   O42       1.0  0.68117  0.41260  0.96869  1.0000
  O   O43       1.0  0.75592  0.00869  0.38026  1.0000
  O   O44       1.0  0.75956  0.13407  0.37612  1.0000
  O   O45       1.0  0.32178  0.91203  0.02596  1.0000
  O   O46       1.0  0.25955  0.63404  0.87580  1.0000
  O   O47       1.0  0.32178  0.58780  0.02560  1.0000
  O   O48       1.0  0.31883  0.08734  0.96875  1.0000
  O   O49       1.0  0.25921  0.36585  0.12265  1.0000
  O   O50       1.0  0.31887  0.41251  0.96826  1.0000
  O   O51       1.0  0.81884  0.91256  0.46850  1.0000
  O   O52       1.0  0.75929  0.63414  0.62340  1.0000
  O   O53       1.0  0.81878  0.58736  0.46873  1.0000
  O   O54       1.0  0.82181  0.08786  0.52590  1.0000
  O   O55       1.0  0.75953  0.36588  0.37613  1.0000
  O   O56       1.0  0.82175  0.41204  0.52605  1.0000
  O   O57       1.0  0.24396  0.49184  0.37871  1.0000
  O   O58       1.0  0.11582  0.49078  0.37285  1.0000
  O   O59       1.0  0.16249  0.43115  0.21837  1.0000
  O   O60       1.0  0.88409  0.49072  0.37342  1.0000
  O   O61       1.0  0.83733  0.43121  0.21873  1.0000
  O   O62       1.0  0.24146  0.50598  0.62927  1.0000
  O   O63       1.0  0.11599  0.50952  0.62580  1.0000
  O   O64       1.0  0.16222  0.57175  0.77560  1.0000
  O   O65       1.0  0.88412  0.50956  0.62614  1.0000
  O   O66       1.0  0.83796  0.57176  0.77608  1.0000
  O   O67       1.0  0.74115  0.49408  0.13054  1.0000
  O   O68       1.0  0.61585  0.49046  0.12620  1.0000
  O   O69       1.0  0.66198  0.42822  0.27604  1.0000
  O   O70       1.0  0.38403  0.49049  0.12577  1.0000
  O   O71       1.0  0.33778  0.42827  0.27560  1.0000
  O   O72       1.0  0.74408  0.50887  0.88052  1.0000
  O   O73       1.0  0.61581  0.50928  0.87332  1.0000
  O   O74       1.0  0.66261  0.56881  0.71870  1.0000
  O   O75       1.0  0.38414  0.50920  0.87264  1.0000
  O   O76       1.0  0.33747  0.56887  0.71830  1.0000
  O   O77       1.0  0.75579  0.49108  0.38078  1.0000
  O   O78       1.0  0.75895  0.50585  0.63073  1.0000
  O   O79       1.0  0.25849  0.49405  0.12895  1.0000
  O   O80       1.0  0.25593  0.50863  0.87933  1.0000
  N   N1        1.0  0.37190  0.26878  0.40003  1.0000
  N   N2        1.0  0.37466  0.27782  0.29307  1.0000
