data_image0
_chemical_formula_structural       Al16H144C224O80CO2
_chemical_formula_sum              "Al16 H144 C225 O82"
_cell_length_a       19.0284
_cell_length_b       19.0286
_cell_length_c       37.0655
_cell_angle_alpha    89.9996
_cell_angle_beta     90
_cell_angle_gamma    89.9995

_space_group_name_H-M_alt    "P 1"
_space_group_IT_number       1

loop_
  _space_group_symop_operation_xyz
  'x, y, z'

loop_
  _atom_site_type_symbol
  _atom_site_label
  _atom_site_symmetry_multiplicity
  _atom_site_fract_x
  _atom_site_fract_y
  _atom_site_fract_z
  _atom_site_occupancy
  Al  Al1       1.0  0.87275  0.09512  0.07884  1.0000
  Al  Al2       1.0  0.12725  0.90489  0.07884  1.0000
  Al  Al3       1.0  0.40492  0.37273  0.57884  1.0000
  Al  Al4       1.0  0.59512  0.62726  0.57884  1.0000
  Al  Al5       1.0  0.62725  0.59510  0.42117  1.0000
  Al  Al6       1.0  0.37276  0.40489  0.42117  1.0000
  Al  Al7       1.0  0.09507  0.87278  0.92116  1.0000
  Al  Al8       1.0  0.90494  0.12724  0.92117  1.0000
  Al  Al9       1.0  0.83585  0.16415  0.00000  1.0000
  Al  Al10      1.0  0.16416  0.83585  0.00000  1.0000
  Al  Al11      1.0  0.33584  0.33582  0.50000  1.0000
  Al  Al12      1.0  0.66418  0.66419  0.50000  1.0000
  Al  Al13      1.0  0.99999  0.99998  0.11345  1.0000
  Al  Al14      1.0  0.50001  0.50001  0.61342  1.0000
  Al  Al15      1.0  0.50000  0.50001  0.38655  1.0000
  Al  Al16      1.0  0.00000  0.00000  0.88652  1.0000
  H   H1        1.0  0.78910  0.36206  0.04276  1.0000
  H   H2        1.0  0.58064  0.48969  0.28332  1.0000
  H   H3        1.0  0.79800  0.23894  0.13961  1.0000
  H   H4        1.0  0.80091  0.34842  0.17660  1.0000
  H   H5        1.0  0.75393  0.60103  0.33039  1.0000
  H   H6        1.0  0.86863  0.53882  0.11577  1.0000
  H   H7        1.0  0.79198  0.47233  0.07942  1.0000
  H   H8        1.0  0.87244  0.84304  0.14459  1.0000
  H   H9        1.0  0.64050  0.49149  0.22344  1.0000
  H   H10       1.0  0.80491  0.73840  0.16594  1.0000
  H   H11       1.0  0.04091  0.70900  0.11009  1.0000
  H   H12       1.0  0.81475  0.60288  0.27072  1.0000
  H   H13       1.0  0.81038  0.65172  0.21185  1.0000
  H   H14       1.0  0.73513  0.44117  0.19489  1.0000
  H   H15       1.0  0.71274  0.01115  0.03080  1.0000
  H   H16       1.0  0.97371  0.60363  0.13078  1.0000
  H   H17       1.0  0.21090  0.63793  0.04276  1.0000
  H   H18       1.0  0.41936  0.51032  0.28332  1.0000
  H   H19       1.0  0.20200  0.76106  0.13961  1.0000
  H   H20       1.0  0.19909  0.65159  0.17660  1.0000
  H   H21       1.0  0.24607  0.39897  0.33039  1.0000
  H   H22       1.0  0.13136  0.46119  0.11577  1.0000
  H   H23       1.0  0.20803  0.52767  0.07943  1.0000
  H   H24       1.0  0.12754  0.15695  0.14459  1.0000
  H   H25       1.0  0.35950  0.50851  0.22344  1.0000
  H   H26       1.0  0.19509  0.26158  0.16593  1.0000
  H   H27       1.0  0.95908  0.29100  0.11009  1.0000
  H   H28       1.0  0.18525  0.39712  0.27072  1.0000
  H   H29       1.0  0.18962  0.34828  0.21185  1.0000
  H   H30       1.0  0.26486  0.55883  0.19489  1.0000
  H   H31       1.0  0.28729  0.98884  0.03082  1.0000
  H   H32       1.0  0.02628  0.39636  0.13078  1.0000
  H   H33       1.0  0.13793  0.28909  0.54276  1.0000
  H   H34       1.0  0.01032  0.08065  0.78334  1.0000
  H   H35       1.0  0.26106  0.29799  0.63961  1.0000
  H   H36       1.0  0.15159  0.30091  0.67660  1.0000
  H   H37       1.0  0.89897  0.25394  0.83040  1.0000
  H   H38       1.0  0.96120  0.36866  0.61578  1.0000
  H   H39       1.0  0.02767  0.29197  0.57943  1.0000
  H   H40       1.0  0.65695  0.37241  0.64459  1.0000
  H   H41       1.0  0.00851  0.14049  0.72345  1.0000
  H   H42       1.0  0.76160  0.30490  0.66594  1.0000
  H   H43       1.0  0.79096  0.54090  0.61009  1.0000
  H   H44       1.0  0.89712  0.31475  0.77072  1.0000
  H   H45       1.0  0.84828  0.31038  0.71185  1.0000
  H   H46       1.0  0.05883  0.23512  0.69489  1.0000
  H   H47       1.0  0.48886  0.21271  0.53081  1.0000
  H   H48       1.0  0.89634  0.47372  0.63078  1.0000
  H   H49       1.0  0.86208  0.71091  0.54276  1.0000
  H   H50       1.0  0.98969  0.91935  0.78332  1.0000
  H   H51       1.0  0.73895  0.70202  0.63961  1.0000
  H   H52       1.0  0.84841  0.69909  0.67660  1.0000
  H   H53       1.0  0.10103  0.74609  0.83040  1.0000
  H   H54       1.0  0.03881  0.63135  0.61578  1.0000
  H   H55       1.0  0.97234  0.70803  0.57943  1.0000
  H   H56       1.0  0.34305  0.62759  0.64459  1.0000
  H   H57       1.0  0.99149  0.85949  0.72343  1.0000
  H   H58       1.0  0.23840  0.69509  0.66594  1.0000
  H   H59       1.0  0.20905  0.45910  0.61009  1.0000
  H   H60       1.0  0.10289  0.68525  0.77073  1.0000
  H   H61       1.0  0.15173  0.68962  0.71185  1.0000
  H   H62       1.0  0.94118  0.76488  0.69489  1.0000
  H   H63       1.0  0.51114  0.78726  0.53080  1.0000
  H   H64       1.0  0.10367  0.52627  0.63077  1.0000
  H   H65       1.0  0.71090  0.86207  0.45724  1.0000
  H   H66       1.0  0.91936  0.98966  0.21668  1.0000
  H   H67       1.0  0.70200  0.73895  0.36039  1.0000
  H   H68       1.0  0.69909  0.84842  0.32340  1.0000
  H   H69       1.0  0.74609  0.10101  0.16961  1.0000
  H   H70       1.0  0.63135  0.03881  0.38422  1.0000
  H   H71       1.0  0.70804  0.97233  0.42057  1.0000
  H   H72       1.0  0.62758  0.34306  0.35541  1.0000
  H   H73       1.0  0.85951  0.99150  0.27657  1.0000
  H   H74       1.0  0.69510  0.23841  0.33406  1.0000
  H   H75       1.0  0.45910  0.20904  0.38991  1.0000
  H   H76       1.0  0.68527  0.10289  0.22928  1.0000
  H   H77       1.0  0.68963  0.15173  0.28815  1.0000
  H   H78       1.0  0.76488  0.94118  0.30512  1.0000
  H   H79       1.0  0.78727  0.51114  0.46919  1.0000
  H   H80       1.0  0.52628  0.10367  0.36923  1.0000
  H   H81       1.0  0.28910  0.13793  0.45724  1.0000
  H   H82       1.0  0.08065  0.01032  0.21668  1.0000
  H   H83       1.0  0.29800  0.26105  0.36039  1.0000
  H   H84       1.0  0.30091  0.15158  0.32340  1.0000
  H   H85       1.0  0.25392  0.89898  0.16961  1.0000
  H   H86       1.0  0.36866  0.96119  0.38422  1.0000
  H   H87       1.0  0.29197  0.02767  0.42057  1.0000
  H   H88       1.0  0.37243  0.65696  0.35541  1.0000
  H   H89       1.0  0.14051  0.00851  0.27657  1.0000
  H   H90       1.0  0.30491  0.76160  0.33406  1.0000
  H   H91       1.0  0.54091  0.79098  0.38991  1.0000
  H   H92       1.0  0.31475  0.89712  0.22928  1.0000
  H   H93       1.0  0.31038  0.84827  0.28815  1.0000
  H   H94       1.0  0.23512  0.05882  0.30512  1.0000
  H   H95       1.0  0.21274  0.48886  0.46920  1.0000
  H   H96       1.0  0.47372  0.89635  0.36922  1.0000
  H   H97       1.0  0.36205  0.78910  0.95724  1.0000
  H   H98       1.0  0.48970  0.58065  0.71667  1.0000
  H   H99       1.0  0.23894  0.79800  0.86039  1.0000
  H   H100      1.0  0.34841  0.80090  0.82340  1.0000
  H   H101      1.0  0.60104  0.75394  0.66962  1.0000
  H   H102      1.0  0.53882  0.86865  0.88423  1.0000
  H   H103      1.0  0.47231  0.79197  0.92058  1.0000
  H   H104      1.0  0.84305  0.87246  0.85541  1.0000
  H   H105      1.0  0.49149  0.64050  0.77655  1.0000
  H   H106      1.0  0.73842  0.80493  0.83407  1.0000
  H   H107      1.0  0.70901  0.04092  0.88992  1.0000
  H   H108      1.0  0.60289  0.81476  0.72929  1.0000
  H   H109      1.0  0.65173  0.81039  0.78816  1.0000
  H   H110      1.0  0.44118  0.73514  0.80512  1.0000
  H   H111      1.0  0.01116  0.71271  0.96917  1.0000
  H   H112      1.0  0.60364  0.97373  0.86923  1.0000
  H   H113      1.0  0.63797  0.21090  0.95725  1.0000
  H   H114      1.0  0.51029  0.41936  0.71666  1.0000
  H   H115      1.0  0.76108  0.20202  0.86039  1.0000
  H   H116      1.0  0.65160  0.19910  0.82340  1.0000
  H   H117      1.0  0.39896  0.24605  0.66962  1.0000
  H   H118      1.0  0.46119  0.13136  0.88423  1.0000
  H   H119      1.0  0.52770  0.20803  0.92058  1.0000
  H   H120      1.0  0.15696  0.12756  0.85541  1.0000
  H   H121      1.0  0.50851  0.35951  0.77655  1.0000
  H   H122      1.0  0.26160  0.19509  0.83407  1.0000
  H   H123      1.0  0.29100  0.95909  0.88991  1.0000
  H   H124      1.0  0.39712  0.18524  0.72929  1.0000
  H   H125      1.0  0.34828  0.18962  0.78816  1.0000
  H   H126      1.0  0.55884  0.26487  0.80512  1.0000
  H   H127      1.0  0.98887  0.28727  0.96920  1.0000
  H   H128      1.0  0.39636  0.02629  0.86922  1.0000
  H   H129      1.0  0.37159  0.44233  0.52711  1.0000
  H   H130      1.0  0.43918  0.37371  0.47355  1.0000
  H   H131      1.0  0.42982  0.51366  0.43648  1.0000
  H   H132      1.0  0.55244  0.50932  0.44198  1.0000
  H   H133      1.0  0.56045  0.61773  0.47264  1.0000
  H   H134      1.0  0.62615  0.56158  0.52528  1.0000
  H   H135      1.0  0.49927  0.43631  0.55818  1.0000
  H   H136      1.0  0.50730  0.55174  0.55854  1.0000
  H   H137      1.0  0.87127  0.05680  0.96983  1.0000
  H   H138      1.0  0.99363  0.05446  0.94036  1.0000
  H   H139      1.0  0.02437  0.95721  0.93840  1.0000
  H   H140      1.0  0.13805  0.94066  0.96982  1.0000
  H   H141      1.0  0.05857  0.87837  0.02894  1.0000
  H   H142      1.0  0.93110  0.99161  0.06053  1.0000
  H   H143      1.0  0.06753  0.01117  0.06242  1.0000
  H   H144      1.0  0.92259  0.16344  0.04906  1.0000
  C   C1        1.0  0.96041  0.78207  0.12600  1.0000
  C   C2        1.0  0.99995  0.84576  0.11389  1.0000
  C   C3        1.0  0.79279  0.29421  0.08915  1.0000
  C   C4        1.0  0.62677  0.54347  0.34595  1.0000
  C   C5        1.0  0.79107  0.36007  0.07207  1.0000
  C   C6        1.0  0.66373  0.54513  0.31030  1.0000
  C   C7        1.0  0.79874  0.22819  0.06766  1.0000
  C   C8        1.0  0.63189  0.51421  0.28006  1.0000
  C   C9        1.0  0.79531  0.29042  0.12696  1.0000
  C   C10       1.0  0.79698  0.35164  0.14738  1.0000
  C   C11       1.0  0.72951  0.57781  0.30668  1.0000
  C   C12       1.0  0.84055  0.54082  0.14133  1.0000
  C   C13       1.0  0.79351  0.42130  0.09265  1.0000
  C   C14       1.0  0.89401  0.79034  0.14212  1.0000
  C   C15       1.0  0.66579  0.51508  0.24681  1.0000
  C   C16       1.0  0.85688  0.73197  0.15414  1.0000
  C   C17       1.0  0.73191  0.54748  0.24281  1.0000
  C   C18       1.0  0.84407  0.60215  0.16240  1.0000
  C   C19       1.0  0.79689  0.41806  0.13058  1.0000
  C   C20       1.0  0.80101  0.48260  0.15262  1.0000
  C   C21       1.0  0.98900  0.71444  0.12209  1.0000
  C   C22       1.0  0.76301  0.57903  0.27325  1.0000
  C   C23       1.0  0.80770  0.60437  0.19545  1.0000
  C   C24       1.0  0.76549  0.48625  0.18581  1.0000
  C   C25       1.0  0.75645  0.04863  0.03442  1.0000
  C   C26       1.0  0.76859  0.54653  0.20762  1.0000
  C   C27       1.0  0.88464  0.66371  0.14995  1.0000
  C   C28       1.0  0.95114  0.65591  0.13360  1.0000
  C   C29       1.0  0.03958  0.21791  0.12600  1.0000
  C   C30       1.0  0.00004  0.15421  0.11390  1.0000
  C   C31       1.0  0.20720  0.70580  0.08914  1.0000
  C   C32       1.0  0.37322  0.45655  0.34596  1.0000
  C   C33       1.0  0.20893  0.63993  0.07207  1.0000
  C   C34       1.0  0.33627  0.45489  0.31031  1.0000
  C   C35       1.0  0.20125  0.77182  0.06766  1.0000
  C   C36       1.0  0.36812  0.48580  0.28007  1.0000
  C   C37       1.0  0.20469  0.70958  0.12695  1.0000
  C   C38       1.0  0.20301  0.64836  0.14738  1.0000
  C   C39       1.0  0.27049  0.42220  0.30668  1.0000
  C   C40       1.0  0.15944  0.45918  0.14133  1.0000
  C   C41       1.0  0.20649  0.57871  0.09264  1.0000
  C   C42       1.0  0.10598  0.20965  0.14212  1.0000
  C   C43       1.0  0.33421  0.48492  0.24681  1.0000
  C   C44       1.0  0.14311  0.26802  0.15413  1.0000
  C   C45       1.0  0.26809  0.45251  0.24281  1.0000
  C   C46       1.0  0.15593  0.39785  0.16240  1.0000
  C   C47       1.0  0.20311  0.58194  0.13058  1.0000
  C   C48       1.0  0.19899  0.51740  0.15262  1.0000
  C   C49       1.0  0.01098  0.28554  0.12209  1.0000
  C   C50       1.0  0.23699  0.42097  0.27325  1.0000
  C   C51       1.0  0.19230  0.39563  0.19545  1.0000
  C   C52       1.0  0.23450  0.51375  0.18581  1.0000
  C   C53       1.0  0.24356  0.95137  0.03443  1.0000
  C   C54       1.0  0.23141  0.45347  0.20762  1.0000
  C   C55       1.0  0.11535  0.33628  0.14995  1.0000
  C   C56       1.0  0.04885  0.34408  0.13360  1.0000
  C   C57       1.0  0.71790  0.46040  0.62600  1.0000
  C   C58       1.0  0.65420  0.49993  0.61389  1.0000
  C   C59       1.0  0.20579  0.29280  0.58914  1.0000
  C   C60       1.0  0.95656  0.12679  0.84596  1.0000
  C   C61       1.0  0.13993  0.29107  0.57207  1.0000
  C   C62       1.0  0.95489  0.16375  0.81031  1.0000
  C   C63       1.0  0.27182  0.29875  0.56766  1.0000
  C   C64       1.0  0.98579  0.13189  0.78007  1.0000
  C   C65       1.0  0.20958  0.29530  0.62695  1.0000
  C   C66       1.0  0.14836  0.29698  0.64738  1.0000
  C   C67       1.0  0.92220  0.22952  0.80668  1.0000
  C   C68       1.0  0.95918  0.34056  0.64133  1.0000
  C   C69       1.0  0.07870  0.29350  0.59265  1.0000
  C   C70       1.0  0.70965  0.39399  0.64212  1.0000
  C   C71       1.0  0.98492  0.16579  0.74682  1.0000
  C   C72       1.0  0.76803  0.35687  0.65414  1.0000
  C   C73       1.0  0.95252  0.23191  0.74281  1.0000
  C   C74       1.0  0.89785  0.34407  0.66241  1.0000
  C   C75       1.0  0.08194  0.29689  0.63058  1.0000
  C   C76       1.0  0.01740  0.30102  0.65263  1.0000
  C   C77       1.0  0.78552  0.48899  0.62209  1.0000
  C   C78       1.0  0.92097  0.26301  0.77326  1.0000
  C   C79       1.0  0.89563  0.30770  0.69545  1.0000
  C   C80       1.0  0.01375  0.26549  0.68581  1.0000
  C   C81       1.0  0.45138  0.25643  0.53442  1.0000
  C   C82       1.0  0.95347  0.26859  0.70763  1.0000
  C   C83       1.0  0.83628  0.38464  0.64995  1.0000
  C   C84       1.0  0.84407  0.45114  0.63360  1.0000
  C   C85       1.0  0.28211  0.53961  0.62600  1.0000
  C   C86       1.0  0.34581  0.50008  0.61388  1.0000
  C   C87       1.0  0.79422  0.70721  0.58914  1.0000
  C   C88       1.0  0.04343  0.87325  0.84593  1.0000
  C   C89       1.0  0.86009  0.70894  0.57207  1.0000
  C   C90       1.0  0.04512  0.83626  0.81029  1.0000
  C   C91       1.0  0.72821  0.70126  0.56766  1.0000
  C   C92       1.0  0.01421  0.86811  0.78005  1.0000
  C   C93       1.0  0.79043  0.70470  0.62695  1.0000
  C   C94       1.0  0.85165  0.70302  0.64738  1.0000
  C   C95       1.0  0.07780  0.77049  0.80668  1.0000
  C   C96       1.0  0.04082  0.65944  0.64133  1.0000
  C   C97       1.0  0.92131  0.70650  0.59265  1.0000
  C   C98       1.0  0.29036  0.60601  0.64212  1.0000
  C   C99       1.0  0.01509  0.83420  0.74680  1.0000
  C   C100      1.0  0.23198  0.64312  0.65414  1.0000
  C   C101      1.0  0.04749  0.76808  0.74281  1.0000
  C   C102      1.0  0.10215  0.65592  0.66240  1.0000
  C   C103      1.0  0.91807  0.70311  0.63058  1.0000
  C   C104      1.0  0.98260  0.69898  0.65263  1.0000
  C   C105      1.0  0.21449  0.51101  0.62208  1.0000
  C   C106      1.0  0.07904  0.73699  0.77326  1.0000
  C   C107      1.0  0.10437  0.69229  0.69545  1.0000
  C   C108      1.0  0.98625  0.73451  0.68581  1.0000
  C   C109      1.0  0.54863  0.74356  0.53442  1.0000
  C   C110      1.0  0.04653  0.73140  0.70763  1.0000
  C   C111      1.0  0.16372  0.61535  0.64995  1.0000
  C   C112      1.0  0.15594  0.54886  0.63359  1.0000
  C   C113      1.0  0.53960  0.28211  0.37400  1.0000
  C   C114      1.0  0.50007  0.34580  0.38611  1.0000
  C   C115      1.0  0.70720  0.79421  0.41086  1.0000
  C   C116      1.0  0.87320  0.04342  0.15403  1.0000
  C   C117      1.0  0.70893  0.86007  0.42793  1.0000
  C   C118      1.0  0.83627  0.04508  0.18969  1.0000
  C   C119      1.0  0.70125  0.72818  0.43234  1.0000
  C   C120      1.0  0.86812  0.01419  0.21994  1.0000
  C   C121      1.0  0.70469  0.79043  0.37305  1.0000
  C   C122      1.0  0.70302  0.85165  0.35262  1.0000
  C   C123      1.0  0.77050  0.07779  0.19332  1.0000
  C   C124      1.0  0.65944  0.04082  0.35867  1.0000
  C   C125      1.0  0.70650  0.92130  0.40735  1.0000
  C   C126      1.0  0.60601  0.29036  0.35788  1.0000
  C   C127      1.0  0.83422  0.01509  0.25319  1.0000
  C   C128      1.0  0.64313  0.23198  0.34586  1.0000
  C   C129      1.0  0.76810  0.04749  0.25719  1.0000
  C   C130      1.0  0.65593  0.10216  0.33760  1.0000
  C   C131      1.0  0.70311  0.91807  0.36942  1.0000
  C   C132      1.0  0.69898  0.98261  0.34737  1.0000
  C   C133      1.0  0.51101  0.21448  0.37792  1.0000
  C   C134      1.0  0.73701  0.07903  0.22675  1.0000
  C   C135      1.0  0.69230  0.10438  0.30455  1.0000
  C   C136      1.0  0.73451  0.98626  0.31419  1.0000
  C   C137      1.0  0.74356  0.54863  0.46557  1.0000
  C   C138      1.0  0.73141  0.04654  0.29238  1.0000
  C   C139      1.0  0.61536  0.16373  0.35005  1.0000
  C   C140      1.0  0.54886  0.15594  0.36640  1.0000
  C   C141      1.0  0.46040  0.71791  0.37400  1.0000
  C   C142      1.0  0.49994  0.65422  0.38612  1.0000
  C   C143      1.0  0.29280  0.20579  0.41086  1.0000
  C   C144      1.0  0.12677  0.95655  0.15405  1.0000
  C   C145      1.0  0.29107  0.13993  0.42793  1.0000
  C   C146      1.0  0.16373  0.95489  0.18970  1.0000
  C   C147      1.0  0.29875  0.27181  0.43234  1.0000
  C   C148      1.0  0.13189  0.98579  0.21994  1.0000
  C   C149      1.0  0.29531  0.20957  0.37305  1.0000
  C   C150      1.0  0.29699  0.14836  0.35262  1.0000
  C   C151      1.0  0.22951  0.92220  0.19332  1.0000
  C   C152      1.0  0.34056  0.95918  0.35867  1.0000
  C   C153      1.0  0.29350  0.07870  0.40735  1.0000
  C   C154      1.0  0.39400  0.70965  0.35788  1.0000
  C   C155      1.0  0.16579  0.98492  0.25320  1.0000
  C   C156      1.0  0.35688  0.76803  0.34586  1.0000
  C   C157      1.0  0.23192  0.95251  0.25719  1.0000
  C   C158      1.0  0.34407  0.89785  0.33760  1.0000
  C   C159      1.0  0.29689  0.08194  0.36942  1.0000
  C   C160      1.0  0.30102  0.01740  0.34737  1.0000
  C   C161      1.0  0.48900  0.78554  0.37792  1.0000
  C   C162      1.0  0.26301  0.92097  0.22675  1.0000
  C   C163      1.0  0.30771  0.89563  0.30455  1.0000
  C   C164      1.0  0.26549  0.01374  0.31419  1.0000
  C   C165      1.0  0.25645  0.45137  0.46558  1.0000
  C   C166      1.0  0.26860  0.95347  0.29238  1.0000
  C   C167      1.0  0.38465  0.83628  0.35005  1.0000
  C   C168      1.0  0.45114  0.84408  0.36641  1.0000
  C   C169      1.0  0.78208  0.96043  0.87401  1.0000
  C   C170      1.0  0.84578  0.99994  0.88613  1.0000
  C   C171      1.0  0.29418  0.79281  0.91086  1.0000
  C   C172      1.0  0.54352  0.62679  0.65402  1.0000
  C   C173      1.0  0.36005  0.79108  0.92793  1.0000
  C   C174      1.0  0.54516  0.66373  0.68969  1.0000
  C   C175      1.0  0.22815  0.79877  0.93235  1.0000
  C   C176      1.0  0.51423  0.63189  0.71993  1.0000
  C   C177      1.0  0.29041  0.79531  0.87305  1.0000
  C   C178      1.0  0.35164  0.79699  0.85263  1.0000
  C   C179      1.0  0.57781  0.72952  0.69333  1.0000
  C   C180      1.0  0.54082  0.84056  0.85868  1.0000
  C   C181      1.0  0.42128  0.79351  0.90736  1.0000
  C   C182      1.0  0.79035  0.89403  0.85789  1.0000
  C   C183      1.0  0.51509  0.66579  0.75319  1.0000
  C   C184      1.0  0.73198  0.85690  0.84587  1.0000
  C   C185      1.0  0.54749  0.73191  0.75720  1.0000
  C   C186      1.0  0.60216  0.84408  0.83760  1.0000
  C   C187      1.0  0.41806  0.79690  0.86943  1.0000
  C   C188      1.0  0.48260  0.80102  0.84738  1.0000
  C   C189      1.0  0.71445  0.98902  0.87792  1.0000
  C   C190      1.0  0.57903  0.76302  0.72675  1.0000
  C   C191      1.0  0.60438  0.80771  0.80456  1.0000
  C   C192      1.0  0.48625  0.76550  0.81420  1.0000
  C   C193      1.0  0.04864  0.75643  0.96557  1.0000
  C   C194      1.0  0.54654  0.76859  0.79238  1.0000
  C   C195      1.0  0.66372  0.88466  0.85006  1.0000
  C   C196      1.0  0.65592  0.95116  0.86641  1.0000
  C   C197      1.0  0.21792  0.03959  0.87401  1.0000
  C   C198      1.0  0.15422  0.00006  0.88612  1.0000
  C   C199      1.0  0.70582  0.20720  0.91086  1.0000
  C   C200      1.0  0.45648  0.37322  0.65402  1.0000
  C   C201      1.0  0.63996  0.20893  0.92793  1.0000
  C   C202      1.0  0.45485  0.33627  0.68968  1.0000
  C   C203      1.0  0.77185  0.20123  0.93235  1.0000
  C   C204      1.0  0.48577  0.36812  0.71992  1.0000
  C   C205      1.0  0.70960  0.20469  0.87305  1.0000
  C   C206      1.0  0.64838  0.20302  0.85263  1.0000
  C   C207      1.0  0.42219  0.27048  0.69332  1.0000
  C   C208      1.0  0.45919  0.15945  0.85868  1.0000
  C   C209      1.0  0.57873  0.20650  0.90736  1.0000
  C   C210      1.0  0.20966  0.10599  0.85788  1.0000
  C   C211      1.0  0.48491  0.33422  0.75318  1.0000
  C   C212      1.0  0.26803  0.14312  0.84587  1.0000
  C   C213      1.0  0.45252  0.26809  0.75720  1.0000
  C   C214      1.0  0.39786  0.15593  0.83760  1.0000
  C   C215      1.0  0.58196  0.20311  0.86943  1.0000
  C   C216      1.0  0.51741  0.19899  0.84738  1.0000
  C   C217      1.0  0.28555  0.01100  0.87792  1.0000
  C   C218      1.0  0.42097  0.23698  0.72675  1.0000
  C   C219      1.0  0.39564  0.19230  0.80456  1.0000
  C   C220      1.0  0.51376  0.23451  0.81420  1.0000
  C   C221      1.0  0.95138  0.24357  0.96558  1.0000
  C   C222      1.0  0.45347  0.23142  0.79238  1.0000
  C   C223      1.0  0.33629  0.11536  0.85005  1.0000
  C   C224      1.0  0.34409  0.04886  0.86641  1.0000
  O   O1        1.0  0.80539  0.17125  0.08554  1.0000
  O   O2        1.0  0.06197  0.83684  0.10154  1.0000
  O   O3        1.0  0.79520  0.03757  0.06164  1.0000
  O   O4        1.0  0.93094  0.02078  0.08199  1.0000
  O   O5        1.0  0.89292  0.13044  0.03484  1.0000
  O   O6        1.0  0.65985  0.56937  0.37272  1.0000
  O   O7        1.0  0.56535  0.51730  0.34607  1.0000
  O   O8        1.0  0.79832  0.23327  0.03345  1.0000
  O   O9        1.0  0.96835  0.90410  0.11819  1.0000
  O   O10       1.0  0.76032  0.09715  0.01107  1.0000
  O   O11       1.0  0.19460  0.82876  0.08554  1.0000
  O   O12       1.0  0.93803  0.16315  0.10155  1.0000
  O   O13       1.0  0.20481  0.96243  0.06164  1.0000
  O   O14       1.0  0.06907  0.97924  0.08200  1.0000
  O   O15       1.0  0.10710  0.86968  0.03482  1.0000
  O   O16       1.0  0.34014  0.43063  0.37272  1.0000
  O   O17       1.0  0.43463  0.48272  0.34610  1.0000
  O   O18       1.0  0.20167  0.76673  0.03344  1.0000
  O   O19       1.0  0.03163  0.09586  0.11821  1.0000
  O   O20       1.0  0.23969  0.90283  0.01107  1.0000
  O   O21       1.0  0.32875  0.30541  0.58553  1.0000
  O   O22       1.0  0.66314  0.56195  0.60155  1.0000
  O   O23       1.0  0.46246  0.29519  0.56163  1.0000
  O   O24       1.0  0.47924  0.43092  0.58201  1.0000
  O   O25       1.0  0.36991  0.39287  0.53479  1.0000
  O   O26       1.0  0.93064  0.15986  0.87272  1.0000
  O   O27       1.0  0.98272  0.06538  0.84609  1.0000
  O   O28       1.0  0.26674  0.29833  0.53344  1.0000
  O   O29       1.0  0.59586  0.46832  0.61819  1.0000
  O   O30       1.0  0.40284  0.26028  0.51108  1.0000
  O   O31       1.0  0.67127  0.69460  0.58554  1.0000
  O   O32       1.0  0.33687  0.43807  0.60153  1.0000
  O   O33       1.0  0.53757  0.70481  0.56163  1.0000
  O   O34       1.0  0.52078  0.56908  0.58200  1.0000
  O   O35       1.0  0.63034  0.60711  0.53482  1.0000
  O   O36       1.0  0.06933  0.84020  0.87270  1.0000
  O   O37       1.0  0.01730  0.93468  0.84600  1.0000
  O   O38       1.0  0.73328  0.70168  0.53344  1.0000
  O   O39       1.0  0.40415  0.53168  0.61819  1.0000
  O   O40       1.0  0.59717  0.73971  0.51108  1.0000
  O   O41       1.0  0.69459  0.67124  0.41447  1.0000
  O   O42       1.0  0.43806  0.33685  0.39847  1.0000
  O   O43       1.0  0.70480  0.53755  0.43837  1.0000
  O   O44       1.0  0.56908  0.52076  0.41798  1.0000
  O   O45       1.0  0.60712  0.63009  0.46523  1.0000
  O   O46       1.0  0.84011  0.06937  0.12729  1.0000
  O   O47       1.0  0.93461  0.01727  0.15387  1.0000
  O   O48       1.0  0.70167  0.73326  0.46656  1.0000
  O   O49       1.0  0.53165  0.40415  0.38180  1.0000
  O   O50       1.0  0.73972  0.59717  0.48892  1.0000
  O   O51       1.0  0.30540  0.32875  0.41447  1.0000
  O   O52       1.0  0.56194  0.66316  0.39848  1.0000
  O   O53       1.0  0.29520  0.46244  0.43837  1.0000
  O   O54       1.0  0.43094  0.47924  0.41799  1.0000
  O   O55       1.0  0.39289  0.36975  0.46520  1.0000
  O   O56       1.0  0.15985  0.93064  0.12729  1.0000
  O   O57       1.0  0.06535  0.98271  0.15393  1.0000
  O   O58       1.0  0.29833  0.26673  0.46656  1.0000
  O   O59       1.0  0.46835  0.59588  0.38181  1.0000
  O   O60       1.0  0.26030  0.40283  0.48893  1.0000
  O   O61       1.0  0.17120  0.80543  0.91447  1.0000
  O   O62       1.0  0.83685  0.06194  0.89851  1.0000
  O   O63       1.0  0.03754  0.79519  0.93837  1.0000
  O   O64       1.0  0.02073  0.93095  0.91796  1.0000
  O   O65       1.0  0.12989  0.89287  0.96526  1.0000
  O   O66       1.0  0.56941  0.65991  0.62728  1.0000
  O   O67       1.0  0.51735  0.56538  0.65385  1.0000
  O   O68       1.0  0.23324  0.79835  0.96657  1.0000
  O   O69       1.0  0.90412  0.96836  0.88180  1.0000
  O   O70       1.0  0.09718  0.76028  0.98892  1.0000
  O   O71       1.0  0.82879  0.19458  0.91448  1.0000
  O   O72       1.0  0.16316  0.93807  0.89851  1.0000
  O   O73       1.0  0.96248  0.20481  0.93837  1.0000
  O   O74       1.0  0.97927  0.06906  0.91797  1.0000
  O   O75       1.0  0.87018  0.10714  0.96526  1.0000
  O   O76       1.0  0.43060  0.34009  0.62727  1.0000
  O   O77       1.0  0.48265  0.43462  0.65384  1.0000
  O   O78       1.0  0.76677  0.20165  0.96657  1.0000
  O   O79       1.0  0.09588  0.03163  0.88179  1.0000
  O   O80       1.0  0.90284  0.23973  0.98892  1.0000
  C   C225      1.0  0.09604  0.08079  0.00003  1.0000
  O   O81       1.0  0.11764  0.05224  0.97406  1.0000
  O   O82       1.0  0.07315  0.10768  0.02601  1.0000
