data_image0
_chemical_formula_structural       Al16H144C240O96N2
_chemical_formula_sum              "Al16 H144 C240 O96 N2"
_cell_length_a       17.4043
_cell_length_b       17.4043
_cell_length_c       23.9659
_cell_angle_alpha    90
_cell_angle_beta     90
_cell_angle_gamma    90

_space_group_name_H-M_alt    "P 1"
_space_group_IT_number       1

loop_
  _space_group_symop_operation_xyz
  'x, y, z'

loop_
  _atom_site_type_symbol
  _atom_site_label
  _atom_site_symmetry_multiplicity
  _atom_site_fract_x
  _atom_site_fract_y
  _atom_site_fract_z
  _atom_site_occupancy
  Al  Al1       1.0  0.82134  0.82134  0.50000  1.0000
  Al  Al2       1.0  0.17866  0.17866  0.50000  1.0000
  Al  Al3       1.0  0.17866  0.82134  0.50000  1.0000
  Al  Al4       1.0  0.82134  0.17866  0.50000  1.0000
  Al  Al5       1.0  0.32134  0.32134  0.00000  1.0000
  Al  Al6       1.0  0.67866  0.67866  0.00000  1.0000
  Al  Al7       1.0  0.67866  0.32134  0.00000  1.0000
  Al  Al8       1.0  0.32134  0.67866  0.00000  1.0000
  Al  Al9       1.0  0.74616  0.00000  0.50000  1.0000
  Al  Al10      1.0  0.25384  0.00000  0.50000  1.0000
  Al  Al11      1.0  0.00000  0.74616  0.50000  1.0000
  Al  Al12      1.0  0.00000  0.25384  0.50000  1.0000
  Al  Al13      1.0  0.24616  0.50000  0.00000  1.0000
  Al  Al14      1.0  0.75384  0.50000  0.00000  1.0000
  Al  Al15      1.0  0.50000  0.24616  0.00000  1.0000
  Al  Al16      1.0  0.50000  0.75384  0.00000  1.0000
  H   H1        1.0  0.81398  0.79779  0.77716  1.0000
  H   H2        1.0  0.18602  0.20221  0.77716  1.0000
  H   H3        1.0  0.20221  0.81398  0.77716  1.0000
  H   H4        1.0  0.79779  0.18602  0.77716  1.0000
  H   H5        1.0  0.18602  0.79779  0.22284  1.0000
  H   H6        1.0  0.81398  0.20221  0.22284  1.0000
  H   H7        1.0  0.79779  0.81398  0.22284  1.0000
  H   H8        1.0  0.20221  0.18602  0.22284  1.0000
  H   H9        1.0  0.31398  0.29779  0.27716  1.0000
  H   H10       1.0  0.68602  0.70221  0.27716  1.0000
  H   H11       1.0  0.70221  0.31398  0.27716  1.0000
  H   H12       1.0  0.29779  0.68602  0.27716  1.0000
  H   H13       1.0  0.68602  0.29779  0.72284  1.0000
  H   H14       1.0  0.31398  0.70221  0.72284  1.0000
  H   H15       1.0  0.29779  0.31398  0.72284  1.0000
  H   H16       1.0  0.70221  0.68602  0.72284  1.0000
  H   H17       1.0  0.82317  0.79680  0.67196  1.0000
  H   H18       1.0  0.17683  0.20320  0.67196  1.0000
  H   H19       1.0  0.20320  0.82317  0.67196  1.0000
  H   H20       1.0  0.79680  0.17683  0.67196  1.0000
  H   H21       1.0  0.17683  0.79680  0.32804  1.0000
  H   H22       1.0  0.82317  0.20320  0.32804  1.0000
  H   H23       1.0  0.79680  0.82317  0.32804  1.0000
  H   H24       1.0  0.20320  0.17683  0.32804  1.0000
  H   H25       1.0  0.32317  0.29680  0.17196  1.0000
  H   H26       1.0  0.67683  0.70320  0.17196  1.0000
  H   H27       1.0  0.70320  0.32317  0.17196  1.0000
  H   H28       1.0  0.29680  0.67683  0.17196  1.0000
  H   H29       1.0  0.67683  0.29680  0.82804  1.0000
  H   H30       1.0  0.32317  0.70320  0.82804  1.0000
  H   H31       1.0  0.29680  0.32317  0.82804  1.0000
  H   H32       1.0  0.70320  0.67683  0.82804  1.0000
  H   H33       1.0  0.71107  0.01610  0.66600  1.0000
  H   H34       1.0  0.28894  0.98390  0.66600  1.0000
  H   H35       1.0  0.98390  0.71107  0.66600  1.0000
  H   H36       1.0  0.01610  0.28894  0.66600  1.0000
  H   H37       1.0  0.28894  0.01610  0.33400  1.0000
  H   H38       1.0  0.71107  0.98390  0.33400  1.0000
  H   H39       1.0  0.01610  0.71107  0.33400  1.0000
  H   H40       1.0  0.98390  0.28894  0.33400  1.0000
  H   H41       1.0  0.21107  0.51611  0.16600  1.0000
  H   H42       1.0  0.78894  0.48390  0.16600  1.0000
  H   H43       1.0  0.48390  0.21107  0.16600  1.0000
  H   H44       1.0  0.51611  0.78894  0.16600  1.0000
  H   H45       1.0  0.78894  0.51611  0.83400  1.0000
  H   H46       1.0  0.21107  0.48390  0.83400  1.0000
  H   H47       1.0  0.51611  0.21107  0.83400  1.0000
  H   H48       1.0  0.48390  0.78894  0.83400  1.0000
  H   H49       1.0  0.70083  0.01700  0.77024  1.0000
  H   H50       1.0  0.29918  0.98300  0.77024  1.0000
  H   H51       1.0  0.98300  0.70083  0.77024  1.0000
  H   H52       1.0  0.01700  0.29918  0.77024  1.0000
  H   H53       1.0  0.29918  0.01700  0.22976  1.0000
  H   H54       1.0  0.70083  0.98300  0.22976  1.0000
  H   H55       1.0  0.01700  0.70083  0.22976  1.0000
  H   H56       1.0  0.98300  0.29918  0.22976  1.0000
  H   H57       1.0  0.20083  0.51701  0.27024  1.0000
  H   H58       1.0  0.79918  0.48300  0.27024  1.0000
  H   H59       1.0  0.48300  0.20083  0.27024  1.0000
  H   H60       1.0  0.51701  0.79918  0.27024  1.0000
  H   H61       1.0  0.79918  0.51701  0.72976  1.0000
  H   H62       1.0  0.20083  0.48300  0.72976  1.0000
  H   H63       1.0  0.51701  0.20083  0.72976  1.0000
  H   H64       1.0  0.48300  0.79918  0.72976  1.0000
  H   H65       1.0  0.52819  0.93156  0.45439  1.0000
  H   H66       1.0  0.47181  0.06844  0.45439  1.0000
  H   H67       1.0  0.06844  0.52819  0.45439  1.0000
  H   H68       1.0  0.93156  0.47181  0.45439  1.0000
  H   H69       1.0  0.47181  0.93156  0.54562  1.0000
  H   H70       1.0  0.52819  0.06844  0.54562  1.0000
  H   H71       1.0  0.93156  0.52819  0.54562  1.0000
  H   H72       1.0  0.06844  0.47181  0.54562  1.0000
  H   H73       1.0  0.02819  0.43156  0.95439  1.0000
  H   H74       1.0  0.97181  0.56844  0.95439  1.0000
  H   H75       1.0  0.56844  0.02819  0.95439  1.0000
  H   H76       1.0  0.43156  0.97181  0.95439  1.0000
  H   H77       1.0  0.97181  0.43156  0.04561  1.0000
  H   H78       1.0  0.02819  0.56844  0.04561  1.0000
  H   H79       1.0  0.43156  0.02819  0.04561  1.0000
  H   H80       1.0  0.56844  0.97181  0.04561  1.0000
  H   H81       1.0  0.41258  0.88262  0.40307  1.0000
  H   H82       1.0  0.58742  0.11738  0.40307  1.0000
  H   H83       1.0  0.11738  0.41258  0.40307  1.0000
  H   H84       1.0  0.88262  0.58742  0.40307  1.0000
  H   H85       1.0  0.58742  0.88262  0.59693  1.0000
  H   H86       1.0  0.41258  0.11738  0.59693  1.0000
  H   H87       1.0  0.88262  0.41258  0.59693  1.0000
  H   H88       1.0  0.11738  0.58742  0.59693  1.0000
  H   H89       1.0  0.91258  0.38262  0.90308  1.0000
  H   H90       1.0  0.08742  0.61738  0.90308  1.0000
  H   H91       1.0  0.61738  0.91258  0.90308  1.0000
  H   H92       1.0  0.38262  0.08742  0.90308  1.0000
  H   H93       1.0  0.08742  0.38262  0.09693  1.0000
  H   H94       1.0  0.91258  0.61738  0.09693  1.0000
  H   H95       1.0  0.38262  0.91258  0.09693  1.0000
  H   H96       1.0  0.61738  0.08742  0.09693  1.0000
  H   H97       1.0  0.54375  0.68602  0.34893  1.0000
  H   H98       1.0  0.45625  0.31399  0.34893  1.0000
  H   H99       1.0  0.31399  0.54375  0.34893  1.0000
  H   H100      1.0  0.68602  0.45625  0.34893  1.0000
  H   H101      1.0  0.45625  0.68602  0.65107  1.0000
  H   H102      1.0  0.54375  0.31399  0.65107  1.0000
  H   H103      1.0  0.68602  0.54375  0.65107  1.0000
  H   H104      1.0  0.31399  0.45625  0.65107  1.0000
  H   H105      1.0  0.04375  0.18602  0.84893  1.0000
  H   H106      1.0  0.95626  0.81399  0.84893  1.0000
  H   H107      1.0  0.81399  0.04375  0.84893  1.0000
  H   H108      1.0  0.18602  0.95626  0.84893  1.0000
  H   H109      1.0  0.95626  0.18602  0.15107  1.0000
  H   H110      1.0  0.04375  0.81399  0.15107  1.0000
  H   H111      1.0  0.18602  0.04375  0.15107  1.0000
  H   H112      1.0  0.81399  0.95626  0.15107  1.0000
  H   H113      1.0  0.65437  0.72933  0.40761  1.0000
  H   H114      1.0  0.34563  0.27067  0.40761  1.0000
  H   H115      1.0  0.27067  0.65437  0.40761  1.0000
  H   H116      1.0  0.72933  0.34563  0.40761  1.0000
  H   H117      1.0  0.34563  0.72933  0.59239  1.0000
  H   H118      1.0  0.65437  0.27067  0.59239  1.0000
  H   H119      1.0  0.72933  0.65437  0.59239  1.0000
  H   H120      1.0  0.27067  0.34563  0.59239  1.0000
  H   H121      1.0  0.15437  0.22933  0.90761  1.0000
  H   H122      1.0  0.84564  0.77067  0.90761  1.0000
  H   H123      1.0  0.77067  0.15437  0.90761  1.0000
  H   H124      1.0  0.22933  0.84564  0.90761  1.0000
  H   H125      1.0  0.84564  0.22933  0.09239  1.0000
  H   H126      1.0  0.15437  0.77067  0.09239  1.0000
  H   H127      1.0  0.22933  0.15437  0.09239  1.0000
  H   H128      1.0  0.77067  0.84564  0.09239  1.0000
  H   H129      1.0  0.85014  0.93847  0.44931  1.0000
  H   H130      1.0  0.14987  0.06153  0.44931  1.0000
  H   H131      1.0  0.06153  0.85014  0.44931  1.0000
  H   H132      1.0  0.93847  0.14987  0.44931  1.0000
  H   H133      1.0  0.14987  0.93847  0.55069  1.0000
  H   H134      1.0  0.85014  0.06153  0.55069  1.0000
  H   H135      1.0  0.93847  0.85014  0.55069  1.0000
  H   H136      1.0  0.06153  0.14987  0.55069  1.0000
  H   H137      1.0  0.35013  0.43847  0.94931  1.0000
  H   H138      1.0  0.64987  0.56153  0.94931  1.0000
  H   H139      1.0  0.56153  0.35013  0.94931  1.0000
  H   H140      1.0  0.43847  0.64987  0.94931  1.0000
  H   H141      1.0  0.64987  0.43847  0.05069  1.0000
  H   H142      1.0  0.35013  0.56153  0.05069  1.0000
  H   H143      1.0  0.43847  0.35013  0.05069  1.0000
  H   H144      1.0  0.56153  0.64987  0.05069  1.0000
  C   C1        1.0  0.40191  0.75481  0.34145  1.0000
  C   C2        1.0  0.59809  0.24519  0.34145  1.0000
  C   C3        1.0  0.24519  0.40191  0.34145  1.0000
  C   C4        1.0  0.75481  0.59809  0.34145  1.0000
  C   C5        1.0  0.59809  0.75481  0.65855  1.0000
  C   C6        1.0  0.40191  0.24519  0.65855  1.0000
  C   C7        1.0  0.75481  0.40191  0.65855  1.0000
  C   C8        1.0  0.24519  0.59809  0.65855  1.0000
  C   C9        1.0  0.90191  0.25481  0.84145  1.0000
  C   C10       1.0  0.09809  0.74520  0.84145  1.0000
  C   C11       1.0  0.74520  0.90191  0.84145  1.0000
  C   C12       1.0  0.25481  0.09809  0.84145  1.0000
  C   C13       1.0  0.09809  0.25481  0.15855  1.0000
  C   C14       1.0  0.90191  0.74520  0.15855  1.0000
  C   C15       1.0  0.25481  0.90191  0.15855  1.0000
  C   C16       1.0  0.74520  0.09809  0.15855  1.0000
  C   C17       1.0  0.75745  0.90727  0.77999  1.0000
  C   C18       1.0  0.24255  0.09273  0.77999  1.0000
  C   C19       1.0  0.09273  0.75745  0.77999  1.0000
  C   C20       1.0  0.90727  0.24255  0.77999  1.0000
  C   C21       1.0  0.24255  0.90727  0.22001  1.0000
  C   C22       1.0  0.75745  0.09273  0.22001  1.0000
  C   C23       1.0  0.90727  0.75745  0.22001  1.0000
  C   C24       1.0  0.09273  0.24255  0.22001  1.0000
  C   C25       1.0  0.25745  0.40727  0.27999  1.0000
  C   C26       1.0  0.74255  0.59273  0.27999  1.0000
  C   C27       1.0  0.59273  0.25745  0.27999  1.0000
  C   C28       1.0  0.40727  0.74255  0.27999  1.0000
  C   C29       1.0  0.74255  0.40727  0.72001  1.0000
  C   C30       1.0  0.25745  0.59273  0.72001  1.0000
  C   C31       1.0  0.40727  0.25745  0.72001  1.0000
  C   C32       1.0  0.59273  0.74255  0.72001  1.0000
  C   C33       1.0  0.79256  0.84535  0.75213  1.0000
  C   C34       1.0  0.20744  0.15466  0.75213  1.0000
  C   C35       1.0  0.15466  0.79256  0.75213  1.0000
  C   C36       1.0  0.84535  0.20744  0.75213  1.0000
  C   C37       1.0  0.20744  0.84535  0.24787  1.0000
  C   C38       1.0  0.79256  0.15466  0.24787  1.0000
  C   C39       1.0  0.84535  0.79256  0.24787  1.0000
  C   C40       1.0  0.15466  0.20744  0.24787  1.0000
  C   C41       1.0  0.29256  0.34534  0.25213  1.0000
  C   C42       1.0  0.70745  0.65466  0.25213  1.0000
  C   C43       1.0  0.65466  0.29256  0.25213  1.0000
  C   C44       1.0  0.34534  0.70745  0.25213  1.0000
  C   C45       1.0  0.70745  0.34534  0.74787  1.0000
  C   C46       1.0  0.29256  0.65466  0.74787  1.0000
  C   C47       1.0  0.34534  0.29256  0.74787  1.0000
  C   C48       1.0  0.65466  0.70745  0.74787  1.0000
  C   C49       1.0  0.79758  0.84482  0.69424  1.0000
  C   C50       1.0  0.20242  0.15518  0.69424  1.0000
  C   C51       1.0  0.15518  0.79758  0.69424  1.0000
  C   C52       1.0  0.84482  0.20242  0.69424  1.0000
  C   C53       1.0  0.20242  0.84482  0.30576  1.0000
  C   C54       1.0  0.79758  0.15518  0.30576  1.0000
  C   C55       1.0  0.84482  0.79758  0.30576  1.0000
  C   C56       1.0  0.15518  0.20242  0.30576  1.0000
  C   C57       1.0  0.29758  0.34482  0.19424  1.0000
  C   C58       1.0  0.70242  0.65519  0.19424  1.0000
  C   C59       1.0  0.65519  0.29758  0.19424  1.0000
  C   C60       1.0  0.34482  0.70242  0.19424  1.0000
  C   C61       1.0  0.70242  0.34482  0.80576  1.0000
  C   C62       1.0  0.29758  0.65519  0.80576  1.0000
  C   C63       1.0  0.34482  0.29758  0.80576  1.0000
  C   C64       1.0  0.65519  0.70242  0.80576  1.0000
  C   C65       1.0  0.76779  0.90664  0.66330  1.0000
  C   C66       1.0  0.23221  0.09336  0.66330  1.0000
  C   C67       1.0  0.09336  0.76779  0.66330  1.0000
  C   C68       1.0  0.90664  0.23221  0.66330  1.0000
  C   C69       1.0  0.23221  0.90664  0.33670  1.0000
  C   C70       1.0  0.76779  0.09336  0.33670  1.0000
  C   C71       1.0  0.90664  0.76779  0.33670  1.0000
  C   C72       1.0  0.09336  0.23221  0.33670  1.0000
  C   C73       1.0  0.26779  0.40664  0.16330  1.0000
  C   C74       1.0  0.73221  0.59336  0.16330  1.0000
  C   C75       1.0  0.59336  0.26779  0.16330  1.0000
  C   C76       1.0  0.40664  0.73221  0.16330  1.0000
  C   C77       1.0  0.73221  0.40664  0.83670  1.0000
  C   C78       1.0  0.26779  0.59336  0.83670  1.0000
  C   C79       1.0  0.40664  0.26779  0.83670  1.0000
  C   C80       1.0  0.59336  0.73221  0.83670  1.0000
  C   C81       1.0  0.73383  0.96908  0.69090  1.0000
  C   C82       1.0  0.26617  0.03092  0.69090  1.0000
  C   C83       1.0  0.03092  0.73383  0.69090  1.0000
  C   C84       1.0  0.96908  0.26617  0.69090  1.0000
  C   C85       1.0  0.26617  0.96908  0.30910  1.0000
  C   C86       1.0  0.73383  0.03092  0.30910  1.0000
  C   C87       1.0  0.96908  0.73383  0.30910  1.0000
  C   C88       1.0  0.03092  0.26617  0.30910  1.0000
  C   C89       1.0  0.23383  0.46908  0.19090  1.0000
  C   C90       1.0  0.76617  0.53092  0.19090  1.0000
  C   C91       1.0  0.53092  0.23383  0.19090  1.0000
  C   C92       1.0  0.46908  0.76617  0.19090  1.0000
  C   C93       1.0  0.76617  0.46908  0.80910  1.0000
  C   C94       1.0  0.23383  0.53092  0.80910  1.0000
  C   C95       1.0  0.46908  0.23383  0.80910  1.0000
  C   C96       1.0  0.53092  0.76617  0.80910  1.0000
  C   C97       1.0  0.72870  0.96945  0.74888  1.0000
  C   C98       1.0  0.27131  0.03055  0.74888  1.0000
  C   C99       1.0  0.03055  0.72870  0.74888  1.0000
  C   C100      1.0  0.96945  0.27131  0.74888  1.0000
  C   C101      1.0  0.27131  0.96945  0.25112  1.0000
  C   C102      1.0  0.72870  0.03055  0.25112  1.0000
  C   C103      1.0  0.96945  0.72870  0.25112  1.0000
  C   C104      1.0  0.03055  0.27131  0.25112  1.0000
  C   C105      1.0  0.22869  0.46945  0.24888  1.0000
  C   C106      1.0  0.77131  0.53055  0.24888  1.0000
  C   C107      1.0  0.53055  0.22869  0.24888  1.0000
  C   C108      1.0  0.46945  0.77131  0.24888  1.0000
  C   C109      1.0  0.77131  0.46945  0.75112  1.0000
  C   C110      1.0  0.22869  0.53055  0.75112  1.0000
  C   C111      1.0  0.46945  0.22869  0.75112  1.0000
  C   C112      1.0  0.53055  0.77131  0.75112  1.0000
  C   C113      1.0  0.77143  0.90633  0.60101  1.0000
  C   C114      1.0  0.22857  0.09367  0.60101  1.0000
  C   C115      1.0  0.09367  0.77143  0.60101  1.0000
  C   C116      1.0  0.90633  0.22857  0.60101  1.0000
  C   C117      1.0  0.22857  0.90633  0.39899  1.0000
  C   C118      1.0  0.77143  0.09367  0.39899  1.0000
  C   C119      1.0  0.90633  0.77143  0.39899  1.0000
  C   C120      1.0  0.09367  0.22857  0.39899  1.0000
  C   C121      1.0  0.27143  0.40633  0.10101  1.0000
  C   C122      1.0  0.72858  0.59367  0.10101  1.0000
  C   C123      1.0  0.59367  0.27143  0.10101  1.0000
  C   C124      1.0  0.40633  0.72858  0.10101  1.0000
  C   C125      1.0  0.72858  0.40633  0.89899  1.0000
  C   C126      1.0  0.27143  0.59367  0.89899  1.0000
  C   C127      1.0  0.40633  0.27143  0.89899  1.0000
  C   C128      1.0  0.59367  0.72858  0.89899  1.0000
  C   C129      1.0  0.52969  0.87682  0.43261  1.0000
  C   C130      1.0  0.47031  0.12318  0.43261  1.0000
  C   C131      1.0  0.12318  0.52969  0.43261  1.0000
  C   C132      1.0  0.87682  0.47031  0.43261  1.0000
  C   C133      1.0  0.47031  0.87682  0.56739  1.0000
  C   C134      1.0  0.52969  0.12318  0.56739  1.0000
  C   C135      1.0  0.87682  0.52969  0.56739  1.0000
  C   C136      1.0  0.12318  0.47031  0.56739  1.0000
  C   C137      1.0  0.02969  0.37682  0.93261  1.0000
  C   C138      1.0  0.97031  0.62318  0.93261  1.0000
  C   C139      1.0  0.62318  0.02969  0.93261  1.0000
  C   C140      1.0  0.37682  0.97031  0.93261  1.0000
  C   C141      1.0  0.97031  0.37682  0.06739  1.0000
  C   C142      1.0  0.02969  0.62318  0.06739  1.0000
  C   C143      1.0  0.37682  0.02969  0.06739  1.0000
  C   C144      1.0  0.62318  0.97031  0.06739  1.0000
  C   C145      1.0  0.46609  0.85026  0.40323  1.0000
  C   C146      1.0  0.53391  0.14975  0.40323  1.0000
  C   C147      1.0  0.14975  0.46609  0.40323  1.0000
  C   C148      1.0  0.85026  0.53391  0.40323  1.0000
  C   C149      1.0  0.53391  0.85026  0.59677  1.0000
  C   C150      1.0  0.46609  0.14975  0.59677  1.0000
  C   C151      1.0  0.85026  0.46609  0.59677  1.0000
  C   C152      1.0  0.14975  0.53391  0.59677  1.0000
  C   C153      1.0  0.96609  0.35025  0.90323  1.0000
  C   C154      1.0  0.03391  0.64975  0.90323  1.0000
  C   C155      1.0  0.64975  0.96609  0.90323  1.0000
  C   C156      1.0  0.35025  0.03391  0.90323  1.0000
  C   C157      1.0  0.03391  0.35025  0.09677  1.0000
  C   C158      1.0  0.96609  0.64975  0.09677  1.0000
  C   C159      1.0  0.35025  0.96609  0.09677  1.0000
  C   C160      1.0  0.64975  0.03391  0.09677  1.0000
  C   C161      1.0  0.47130  0.78167  0.37257  1.0000
  C   C162      1.0  0.52870  0.21833  0.37257  1.0000
  C   C163      1.0  0.21833  0.47130  0.37257  1.0000
  C   C164      1.0  0.78167  0.52870  0.37257  1.0000
  C   C165      1.0  0.52870  0.78167  0.62743  1.0000
  C   C166      1.0  0.47130  0.21833  0.62743  1.0000
  C   C167      1.0  0.78167  0.47130  0.62743  1.0000
  C   C168      1.0  0.21833  0.52870  0.62743  1.0000
  C   C169      1.0  0.97131  0.28167  0.87258  1.0000
  C   C170      1.0  0.02870  0.71833  0.87258  1.0000
  C   C171      1.0  0.71833  0.97131  0.87258  1.0000
  C   C172      1.0  0.28167  0.02870  0.87258  1.0000
  C   C173      1.0  0.02870  0.28167  0.12743  1.0000
  C   C174      1.0  0.97131  0.71833  0.12743  1.0000
  C   C175      1.0  0.28167  0.97131  0.12743  1.0000
  C   C176      1.0  0.71833  0.02870  0.12743  1.0000
  C   C177      1.0  0.53972  0.73887  0.37307  1.0000
  C   C178      1.0  0.46028  0.26114  0.37307  1.0000
  C   C179      1.0  0.26114  0.53972  0.37307  1.0000
  C   C180      1.0  0.73887  0.46028  0.37307  1.0000
  C   C181      1.0  0.46028  0.73887  0.62693  1.0000
  C   C182      1.0  0.53972  0.26114  0.62693  1.0000
  C   C183      1.0  0.73887  0.53972  0.62693  1.0000
  C   C184      1.0  0.26114  0.46028  0.62693  1.0000
  C   C185      1.0  0.03972  0.23887  0.87307  1.0000
  C   C186      1.0  0.96028  0.76114  0.87307  1.0000
  C   C187      1.0  0.76114  0.03972  0.87307  1.0000
  C   C188      1.0  0.23887  0.96028  0.87307  1.0000
  C   C189      1.0  0.96028  0.23887  0.12693  1.0000
  C   C190      1.0  0.03972  0.76114  0.12693  1.0000
  C   C191      1.0  0.23887  0.03972  0.12693  1.0000
  C   C192      1.0  0.76114  0.96028  0.12693  1.0000
  C   C193      1.0  0.60167  0.76292  0.40560  1.0000
  C   C194      1.0  0.39834  0.23709  0.40560  1.0000
  C   C195      1.0  0.23709  0.60167  0.40560  1.0000
  C   C196      1.0  0.76292  0.39834  0.40560  1.0000
  C   C197      1.0  0.39834  0.76292  0.59440  1.0000
  C   C198      1.0  0.60167  0.23709  0.59440  1.0000
  C   C199      1.0  0.76292  0.60167  0.59440  1.0000
  C   C200      1.0  0.23709  0.39834  0.59440  1.0000
  C   C201      1.0  0.10166  0.26292  0.90560  1.0000
  C   C202      1.0  0.89834  0.73709  0.90560  1.0000
  C   C203      1.0  0.73709  0.10166  0.90560  1.0000
  C   C204      1.0  0.26292  0.89834  0.90560  1.0000
  C   C205      1.0  0.89834  0.26292  0.09440  1.0000
  C   C206      1.0  0.10166  0.73709  0.09440  1.0000
  C   C207      1.0  0.26292  0.10166  0.09440  1.0000
  C   C208      1.0  0.73709  0.89834  0.09440  1.0000
  C   C209      1.0  0.59707  0.83261  0.43485  1.0000
  C   C210      1.0  0.40293  0.16739  0.43485  1.0000
  C   C211      1.0  0.16739  0.59707  0.43485  1.0000
  C   C212      1.0  0.83261  0.40293  0.43485  1.0000
  C   C213      1.0  0.40293  0.83261  0.56515  1.0000
  C   C214      1.0  0.59707  0.16739  0.56515  1.0000
  C   C215      1.0  0.83261  0.59707  0.56515  1.0000
  C   C216      1.0  0.16739  0.40293  0.56515  1.0000
  C   C217      1.0  0.09707  0.33261  0.93485  1.0000
  C   C218      1.0  0.90293  0.66740  0.93485  1.0000
  C   C219      1.0  0.66740  0.09707  0.93485  1.0000
  C   C220      1.0  0.33261  0.90293  0.93485  1.0000
  C   C221      1.0  0.90293  0.33261  0.06515  1.0000
  C   C222      1.0  0.09707  0.66740  0.06515  1.0000
  C   C223      1.0  0.33261  0.09707  0.06515  1.0000
  C   C224      1.0  0.66740  0.90293  0.06515  1.0000
  C   C225      1.0  0.66484  0.86044  0.46699  1.0000
  C   C226      1.0  0.33517  0.13956  0.46699  1.0000
  C   C227      1.0  0.13956  0.66484  0.46699  1.0000
  C   C228      1.0  0.86044  0.33517  0.46699  1.0000
  C   C229      1.0  0.33517  0.86044  0.53301  1.0000
  C   C230      1.0  0.66484  0.13956  0.53301  1.0000
  C   C231      1.0  0.86044  0.66484  0.53301  1.0000
  C   C232      1.0  0.13956  0.33517  0.53301  1.0000
  C   C233      1.0  0.16483  0.36044  0.96700  1.0000
  C   C234      1.0  0.83517  0.63956  0.96700  1.0000
  C   C235      1.0  0.63956  0.16483  0.96700  1.0000
  C   C236      1.0  0.36044  0.83517  0.96700  1.0000
  C   C237      1.0  0.83517  0.36044  0.03301  1.0000
  C   C238      1.0  0.16483  0.63956  0.03301  1.0000
  C   C239      1.0  0.36044  0.16483  0.03301  1.0000
  C   C240      1.0  0.63956  0.83517  0.03301  1.0000
  O   O1        1.0  0.79964  0.84726  0.57736  1.0000
  O   O2        1.0  0.20036  0.15274  0.57736  1.0000
  O   O3        1.0  0.15274  0.79964  0.57736  1.0000
  O   O4        1.0  0.84726  0.20036  0.57736  1.0000
  O   O5        1.0  0.20036  0.84726  0.42264  1.0000
  O   O6        1.0  0.79964  0.15274  0.42264  1.0000
  O   O7        1.0  0.84726  0.79964  0.42264  1.0000
  O   O8        1.0  0.15274  0.20036  0.42264  1.0000
  O   O9        1.0  0.29964  0.34726  0.07736  1.0000
  O   O10       1.0  0.70037  0.65275  0.07736  1.0000
  O   O11       1.0  0.65275  0.29964  0.07736  1.0000
  O   O12       1.0  0.34726  0.70037  0.07736  1.0000
  O   O13       1.0  0.70037  0.34726  0.92264  1.0000
  O   O14       1.0  0.29964  0.65275  0.92264  1.0000
  O   O15       1.0  0.34726  0.29964  0.92264  1.0000
  O   O16       1.0  0.65275  0.70037  0.92264  1.0000
  O   O17       1.0  0.74599  0.96632  0.57639  1.0000
  O   O18       1.0  0.25401  0.03368  0.57639  1.0000
  O   O19       1.0  0.03368  0.74599  0.57639  1.0000
  O   O20       1.0  0.96632  0.25401  0.57639  1.0000
  O   O21       1.0  0.25401  0.96632  0.42362  1.0000
  O   O22       1.0  0.74599  0.03368  0.42362  1.0000
  O   O23       1.0  0.96632  0.74599  0.42362  1.0000
  O   O24       1.0  0.03368  0.25401  0.42362  1.0000
  O   O25       1.0  0.24599  0.46632  0.07638  1.0000
  O   O26       1.0  0.75401  0.53368  0.07638  1.0000
  O   O27       1.0  0.53368  0.24599  0.07638  1.0000
  O   O28       1.0  0.46632  0.75401  0.07638  1.0000
  O   O29       1.0  0.75401  0.46632  0.92362  1.0000
  O   O30       1.0  0.24599  0.53368  0.92362  1.0000
  O   O31       1.0  0.46632  0.24599  0.92362  1.0000
  O   O32       1.0  0.53368  0.75401  0.92362  1.0000
  O   O33       1.0  0.66530  0.93146  0.48071  1.0000
  O   O34       1.0  0.33470  0.06855  0.48071  1.0000
  O   O35       1.0  0.06855  0.66530  0.48071  1.0000
  O   O36       1.0  0.93146  0.33470  0.48071  1.0000
  O   O37       1.0  0.33470  0.93146  0.51929  1.0000
  O   O38       1.0  0.66530  0.06855  0.51929  1.0000
  O   O39       1.0  0.93146  0.66530  0.51929  1.0000
  O   O40       1.0  0.06855  0.33470  0.51929  1.0000
  O   O41       1.0  0.16530  0.43145  0.98071  1.0000
  O   O42       1.0  0.83470  0.56855  0.98071  1.0000
  O   O43       1.0  0.56855  0.16530  0.98071  1.0000
  O   O44       1.0  0.43145  0.83470  0.98071  1.0000
  O   O45       1.0  0.83470  0.43145  0.01929  1.0000
  O   O46       1.0  0.16530  0.56855  0.01929  1.0000
  O   O47       1.0  0.43145  0.16530  0.01929  1.0000
  O   O48       1.0  0.56855  0.83470  0.01929  1.0000
  O   O49       1.0  0.71694  0.81140  0.47803  1.0000
  O   O50       1.0  0.28306  0.18860  0.47803  1.0000
  O   O51       1.0  0.18860  0.71694  0.47803  1.0000
  O   O52       1.0  0.81140  0.28306  0.47803  1.0000
  O   O53       1.0  0.28306  0.81140  0.52197  1.0000
  O   O54       1.0  0.71694  0.18860  0.52197  1.0000
  O   O55       1.0  0.81140  0.71694  0.52197  1.0000
  O   O56       1.0  0.18860  0.28306  0.52197  1.0000
  O   O57       1.0  0.21694  0.31140  0.97803  1.0000
  O   O58       1.0  0.78306  0.68860  0.97803  1.0000
  O   O59       1.0  0.68860  0.21694  0.97803  1.0000
  O   O60       1.0  0.31140  0.78306  0.97803  1.0000
  O   O61       1.0  0.78306  0.31140  0.02197  1.0000
  O   O62       1.0  0.21694  0.68860  0.02197  1.0000
  O   O63       1.0  0.31140  0.21694  0.02197  1.0000
  O   O64       1.0  0.68860  0.78306  0.02197  1.0000
  O   O65       1.0  0.82171  0.92668  0.48296  1.0000
  O   O66       1.0  0.17829  0.07333  0.48296  1.0000
  O   O67       1.0  0.07333  0.82171  0.48296  1.0000
  O   O68       1.0  0.92668  0.17829  0.48296  1.0000
  O   O69       1.0  0.17829  0.92668  0.51704  1.0000
  O   O70       1.0  0.82171  0.07333  0.51704  1.0000
  O   O71       1.0  0.92668  0.82171  0.51704  1.0000
  O   O72       1.0  0.07333  0.17829  0.51704  1.0000
  O   O73       1.0  0.32171  0.42668  0.98296  1.0000
  O   O74       1.0  0.67829  0.57333  0.98296  1.0000
  O   O75       1.0  0.57333  0.32171  0.98296  1.0000
  O   O76       1.0  0.42668  0.67829  0.98296  1.0000
  O   O77       1.0  0.67829  0.42668  0.01704  1.0000
  O   O78       1.0  0.32171  0.57333  0.01704  1.0000
  O   O79       1.0  0.42668  0.32171  0.01704  1.0000
  O   O80       1.0  0.57333  0.67829  0.01704  1.0000
  O   O81       1.0  0.34046  0.74653  0.36651  1.0000
  O   O82       1.0  0.65955  0.25348  0.36651  1.0000
  O   O83       1.0  0.25348  0.34046  0.36651  1.0000
  O   O84       1.0  0.74653  0.65955  0.36651  1.0000
  O   O85       1.0  0.65955  0.74653  0.63349  1.0000
  O   O86       1.0  0.34046  0.25348  0.63349  1.0000
  O   O87       1.0  0.74653  0.34046  0.63349  1.0000
  O   O88       1.0  0.25348  0.65955  0.63349  1.0000
  O   O89       1.0  0.84046  0.24653  0.86651  1.0000
  O   O90       1.0  0.15954  0.75348  0.86651  1.0000
  O   O91       1.0  0.75348  0.84046  0.86651  1.0000
  O   O92       1.0  0.24653  0.15954  0.86651  1.0000
  O   O93       1.0  0.15954  0.24653  0.13349  1.0000
  O   O94       1.0  0.84046  0.75348  0.13349  1.0000
  O   O95       1.0  0.24653  0.84046  0.13349  1.0000
  O   O96       1.0  0.75348  0.15954  0.13349  1.0000
  N   N1        1.0  0.50000  0.50000  0.97667  1.0000
  N   N2        1.0  0.50000  0.50000  0.02331  1.0000
