data_image0
_chemical_formula_structural       Al8H96C176O40N2
_chemical_formula_sum              "Al8 H96 C176 O40 N2"
_cell_length_a       30.1922
_cell_length_b       13.1666
_cell_length_c       15.8642
_cell_angle_alpha    88.4269
_cell_angle_beta     90.0706
_cell_angle_gamma    91.0266

_space_group_name_H-M_alt    "P 1"
_space_group_IT_number       1

loop_
  _space_group_symop_operation_xyz
  'x, y, z'

loop_
  _atom_site_type_symbol
  _atom_site_label
  _atom_site_symmetry_multiplicity
  _atom_site_fract_x
  _atom_site_fract_y
  _atom_site_fract_z
  _atom_site_occupancy
  Al  Al1       1.0  0.25078  0.13198  0.00193  1.0000
  Al  Al2       1.0  0.74935  0.36961  0.99729  1.0000
  Al  Al3       1.0  0.75078  0.12016  0.99941  1.0000
  Al  Al4       1.0  0.24994  0.38214  0.00283  1.0000
  Al  Al5       1.0  0.25038  0.63178  0.00150  1.0000
  Al  Al6       1.0  0.74882  0.61970  0.00016  1.0000
  Al  Al7       1.0  0.24899  0.88128  0.00013  1.0000
  Al  Al8       1.0  0.74899  0.87008  0.00225  1.0000
  H   H1        1.0  0.04092  0.24593  0.28563  1.0000
  H   H2        1.0  0.15313  0.25350  0.50002  1.0000
  H   H3        1.0  0.69565  0.23926  0.03119  1.0000
  H   H4        1.0  0.95954  0.24563  0.28559  1.0000
  H   H5        1.0  0.84767  0.25171  0.49987  1.0000
  H   H6        1.0  0.95993  0.26102  0.71433  1.0000
  H   H7        1.0  0.04124  0.26145  0.71435  1.0000
  H   H8        1.0  0.53939  0.99662  0.28533  1.0000
  H   H9        1.0  0.65214  0.99568  0.49899  1.0000
  H   H10       1.0  0.45810  0.99964  0.28604  1.0000
  H   H11       1.0  0.34686  0.00934  0.50135  1.0000
  H   H12       1.0  0.45966  0.01192  0.71490  1.0000
  H   H13       1.0  0.54093  0.00806  0.71426  1.0000
  H   H14       1.0  0.39813  0.15707  0.30185  1.0000
  H   H15       1.0  0.35141  0.15278  0.17141  1.0000
  H   H16       1.0  0.35108  0.35341  0.36993  1.0000
  H   H17       1.0  0.30636  0.35372  0.23691  1.0000
  H   H18       1.0  0.18796  0.09463  0.23445  1.0000
  H   H19       1.0  0.15136  0.40130  0.17282  1.0000
  H   H20       1.0  0.10455  0.40416  0.30292  1.0000
  H   H21       1.0  0.14317  0.09855  0.36697  1.0000
  H   H22       1.0  0.14808  0.10705  0.82867  1.0000
  H   H23       1.0  0.10202  0.10340  0.69791  1.0000
  H   H24       1.0  0.14603  0.40813  0.63285  1.0000
  H   H25       1.0  0.19036  0.41285  0.76586  1.0000
  H   H26       1.0  0.35152  0.35754  0.83209  1.0000
  H   H27       1.0  0.35586  0.16101  0.63155  1.0000
  H   H28       1.0  0.31179  0.16716  0.76459  1.0000
  H   H29       1.0  0.39709  0.35267  0.70118  1.0000
  H   H30       1.0  0.68672  0.33120  0.23195  1.0000
  H   H31       1.0  0.64869  0.14559  0.17014  1.0000
  H   H32       1.0  0.64258  0.33523  0.36503  1.0000
  H   H33       1.0  0.60219  0.14923  0.29983  1.0000
  H   H34       1.0  0.64938  0.14600  0.62980  1.0000
  H   H35       1.0  0.69397  0.14703  0.76286  1.0000
  H   H36       1.0  0.65269  0.34343  0.82241  1.0000
  H   H37       1.0  0.60606  0.33761  0.69177  1.0000
  H   H38       1.0  0.85383  0.10224  0.82924  1.0000
  H   H39       1.0  0.90024  0.10300  0.69903  1.0000
  H   H40       1.0  0.80863  0.40135  0.76327  1.0000
  H   H41       1.0  0.85327  0.40072  0.63046  1.0000
  H   H42       1.0  0.85190  0.39920  0.17180  1.0000
  H   H43       1.0  0.80973  0.09361  0.23541  1.0000
  H   H44       1.0  0.85444  0.09869  0.36822  1.0000
  H   H45       1.0  0.89859  0.40292  0.30175  1.0000
  H   H46       1.0  0.30441  0.75862  0.03400  1.0000
  H   H47       1.0  0.03881  0.73808  0.28622  1.0000
  H   H48       1.0  0.15171  0.74911  0.49902  1.0000
  H   H49       1.0  0.95743  0.73664  0.28713  1.0000
  H   H50       1.0  0.84622  0.74460  0.50279  1.0000
  H   H51       1.0  0.95914  0.75286  0.71582  1.0000
  H   H52       1.0  0.04046  0.75364  0.71496  1.0000
  H   H53       1.0  0.80366  0.49401  0.03459  1.0000
  H   H54       1.0  0.53858  0.48398  0.28468  1.0000
  H   H55       1.0  0.65248  0.48733  0.49615  1.0000
  H   H56       1.0  0.45732  0.49003  0.28681  1.0000
  H   H57       1.0  0.34740  0.50746  0.50387  1.0000
  H   H58       1.0  0.46117  0.50393  0.71557  1.0000
  H   H59       1.0  0.54248  0.49902  0.71337  1.0000
  H   H60       1.0  0.39981  0.65491  0.30637  1.0000
  H   H61       1.0  0.35306  0.65677  0.17620  1.0000
  H   H62       1.0  0.35267  0.85445  0.37046  1.0000
  H   H63       1.0  0.30792  0.84889  0.23787  1.0000
  H   H64       1.0  0.18814  0.59577  0.23376  1.0000
  H   H65       1.0  0.14709  0.89906  0.17167  1.0000
  H   H66       1.0  0.10041  0.89874  0.30204  1.0000
  H   H67       1.0  0.14364  0.59682  0.36671  1.0000
  H   H68       1.0  0.14690  0.60311  0.82976  1.0000
  H   H69       1.0  0.10024  0.59858  0.69997  1.0000
  H   H70       1.0  0.14697  0.89943  0.62883  1.0000
  H   H71       1.0  0.19188  0.90540  0.76111  1.0000
  H   H72       1.0  0.35057  0.86337  0.83134  1.0000
  H   H73       1.0  0.35853  0.65788  0.63557  1.0000
  H   H74       1.0  0.31469  0.66371  0.76910  1.0000
  H   H75       1.0  0.39688  0.85860  0.70071  1.0000
  H   H76       1.0  0.68804  0.84184  0.23590  1.0000
  H   H77       1.0  0.64797  0.63587  0.16829  1.0000
  H   H78       1.0  0.64333  0.84673  0.36837  1.0000
  H   H79       1.0  0.60182  0.63878  0.29930  1.0000
  H   H80       1.0  0.64302  0.64832  0.63160  1.0000
  H   H81       1.0  0.68786  0.65483  0.76414  1.0000
  H   H82       1.0  0.64446  0.84783  0.82887  1.0000
  H   H83       1.0  0.59790  0.84837  0.69859  1.0000
  H   H84       1.0  0.84947  0.59993  0.83186  1.0000
  H   H85       1.0  0.89550  0.59519  0.70093  1.0000
  H   H86       1.0  0.81244  0.90567  0.76764  1.0000
  H   H87       1.0  0.85658  0.89998  0.63472  1.0000
  H   H88       1.0  0.85022  0.89121  0.17368  1.0000
  H   H89       1.0  0.80675  0.58693  0.23891  1.0000
  H   H90       1.0  0.85173  0.59136  0.37117  1.0000
  H   H91       1.0  0.89742  0.89413  0.30350  1.0000
  H   H92       1.0  0.30504  0.26316  0.96962  1.0000
  H   H93       1.0  0.80408  0.99664  0.96527  1.0000
  H   H94       1.0  0.19395  0.00845  0.96971  1.0000
  H   H95       1.0  0.69411  0.74610  0.96590  1.0000
  H   H96       1.0  0.19646  0.50748  0.96324  1.0000
  C   C1        1.0  0.19991  0.24642  0.11845  1.0000
  C   C2        1.0  0.02292  0.24946  0.34475  1.0000
  C   C3        1.0  0.02410  0.25348  0.49997  1.0000
  C   C4        1.0  0.09466  0.25328  0.42281  1.0000
  C   C5        1.0  0.04772  0.25311  0.42168  1.0000
  C   C6        1.0  0.11709  0.25353  0.50005  1.0000
  C   C7        1.0  0.16982  0.16209  0.25052  1.0000
  C   C8        1.0  0.14479  0.16458  0.32419  1.0000
  C   C9        1.0  0.12291  0.33656  0.28803  1.0000
  C   C10       1.0  0.14876  0.33519  0.21534  1.0000
  C   C11       1.0  0.80077  0.24208  0.11745  1.0000
  C   C12       1.0  0.97765  0.24936  0.34472  1.0000
  C   C13       1.0  0.97670  0.25327  0.49994  1.0000
  C   C14       1.0  0.90605  0.25289  0.42267  1.0000
  C   C15       1.0  0.95299  0.25289  0.42161  1.0000
  C   C16       1.0  0.88372  0.25237  0.49988  1.0000
  C   C17       1.0  0.80110  0.25242  0.88190  1.0000
  C   C18       1.0  0.97789  0.25728  0.65518  1.0000
  C   C19       1.0  0.90614  0.25218  0.57713  1.0000
  C   C20       1.0  0.95309  0.25320  0.57827  1.0000
  C   C21       1.0  0.82864  0.25202  0.80422  1.0000
  C   C22       1.0  0.87985  0.25201  0.65612  1.0000
  C   C23       1.0  0.82817  0.24594  0.19560  1.0000
  C   C24       1.0  0.82899  0.16111  0.25111  1.0000
  C   C25       1.0  0.85401  0.16422  0.32489  1.0000
  C   C26       1.0  0.87962  0.25096  0.34366  1.0000
  C   C27       1.0  0.87899  0.33537  0.28741  1.0000
  C   C28       1.0  0.85304  0.33341  0.21467  1.0000
  C   C29       1.0  0.19914  0.26316  0.88378  1.0000
  C   C30       1.0  0.02315  0.25757  0.65520  1.0000
  C   C31       1.0  0.09474  0.25367  0.57727  1.0000
  C   C32       1.0  0.04781  0.25387  0.57830  1.0000
  C   C33       1.0  0.17177  0.26043  0.80559  1.0000
  C   C34       1.0  0.17107  0.34538  0.75018  1.0000
  C   C35       1.0  0.14634  0.34242  0.67600  1.0000
  C   C36       1.0  0.12097  0.25556  0.65656  1.0000
  C   C37       1.0  0.12147  0.17102  0.71273  1.0000
  C   C38       1.0  0.14704  0.17295  0.78591  1.0000
  C   C39       1.0  0.17214  0.24768  0.19589  1.0000
  C   C40       1.0  0.12087  0.25153  0.34365  1.0000
  C   C41       1.0  0.82855  0.33631  0.74809  1.0000
  C   C42       1.0  0.85349  0.33563  0.67427  1.0000
  C   C43       1.0  0.88010  0.16818  0.71304  1.0000
  C   C44       1.0  0.85431  0.16762  0.78583  1.0000
  C   C45       1.0  0.69890  0.99032  0.11776  1.0000
  C   C46       1.0  0.52161  0.00046  0.34468  1.0000
  C   C47       1.0  0.52322  0.00286  0.49995  1.0000
  C   C48       1.0  0.59356  0.00021  0.42209  1.0000
  C   C49       1.0  0.54663  0.00235  0.42140  1.0000
  C   C50       1.0  0.61612  0.99782  0.49921  1.0000
  C   C51       1.0  0.67106  0.99325  0.19503  1.0000
  C   C52       1.0  0.66810  0.39814  0.24746  1.0000
  C   C53       1.0  0.64349  0.40070  0.32160  1.0000
  C   C54       1.0  0.61911  0.48708  0.34074  1.0000
  C   C55       1.0  0.62107  0.08202  0.28599  1.0000
  C   C56       1.0  0.64695  0.08010  0.21336  1.0000
  C   C57       1.0  0.29994  0.99751  0.11857  1.0000
  C   C58       1.0  0.47636  0.00210  0.34507  1.0000
  C   C59       1.0  0.47583  0.00492  0.50034  1.0000
  C   C60       1.0  0.40502  0.00765  0.42368  1.0000
  C   C61       1.0  0.45194  0.00605  0.42220  1.0000
  C   C62       1.0  0.38289  0.00824  0.50108  1.0000
  C   C63       1.0  0.37852  0.00589  0.34473  1.0000
  C   C64       1.0  0.30168  0.01843  0.88426  1.0000
  C   C65       1.0  0.47743  0.00774  0.65558  1.0000
  C   C66       1.0  0.40548  0.00716  0.57818  1.0000
  C   C67       1.0  0.45242  0.00556  0.57887  1.0000
  C   C68       1.0  0.32737  0.00023  0.19650  1.0000
  C   C69       1.0  0.32659  0.41945  0.25337  1.0000
  C   C70       1.0  0.35159  0.41955  0.32722  1.0000
  C   C71       1.0  0.37832  0.08973  0.28783  1.0000
  C   C72       1.0  0.35253  0.08755  0.21493  1.0000
  C   C73       1.0  0.69926  0.99910  0.88205  1.0000
  C   C74       1.0  0.52268  0.00557  0.65522  1.0000
  C   C75       1.0  0.59400  0.99809  0.57665  1.0000
  C   C76       1.0  0.54710  0.00109  0.57810  1.0000
  C   C77       1.0  0.67244  0.49983  0.80142  1.0000
  C   C78       1.0  0.67317  0.08178  0.74755  1.0000
  C   C79       1.0  0.64821  0.08095  0.67366  1.0000
  C   C80       1.0  0.62054  0.99731  0.65552  1.0000
  C   C81       1.0  0.62406  0.40689  0.70767  1.0000
  C   C82       1.0  0.64976  0.40992  0.78063  1.0000
  C   C83       1.0  0.33043  0.51101  0.80853  1.0000
  C   C84       1.0  0.33037  0.09991  0.74977  1.0000
  C   C85       1.0  0.35497  0.09620  0.67565  1.0000
  C   C86       1.0  0.37948  0.00966  0.65748  1.0000
  C   C87       1.0  0.37896  0.42067  0.71590  1.0000
  C   C88       1.0  0.35364  0.42325  0.78915  1.0000
  C   C89       1.0  0.19793  0.74683  0.11719  1.0000
  C   C90       1.0  0.02098  0.74156  0.34555  1.0000
  C   C91       1.0  0.02267  0.74556  0.50077  1.0000
  C   C92       1.0  0.09298  0.74775  0.42256  1.0000
  C   C93       1.0  0.04603  0.74593  0.42214  1.0000
  C   C94       1.0  0.11565  0.74801  0.49953  1.0000
  C   C95       1.0  0.16911  0.66187  0.24985  1.0000
  C   C96       1.0  0.14421  0.66272  0.32373  1.0000
  C   C97       1.0  0.11975  0.83258  0.28719  1.0000
  C   C98       1.0  0.14556  0.83294  0.21433  1.0000
  C   C99       1.0  0.79856  0.73631  0.12024  1.0000
  C   C100      1.0  0.97571  0.74076  0.34607  1.0000
  C   C101      1.0  0.97525  0.74494  0.50130  1.0000
  C   C102      1.0  0.90433  0.74447  0.42486  1.0000
  C   C103      1.0  0.95128  0.74439  0.42324  1.0000
  C   C104      1.0  0.88226  0.74456  0.50240  1.0000
  C   C105      1.0  0.80109  0.75574  0.88575  1.0000
  C   C106      1.0  0.97694  0.74922  0.65649  1.0000
  C   C107      1.0  0.90493  0.74487  0.57941  1.0000
  C   C108      1.0  0.95188  0.74523  0.57989  1.0000
  C   C109      1.0  0.82858  0.75334  0.80787  1.0000
  C   C110      1.0  0.87905  0.74730  0.65897  1.0000
  C   C111      1.0  0.82612  0.73852  0.19812  1.0000
  C   C112      1.0  0.82654  0.65391  0.25388  1.0000
  C   C113      1.0  0.85166  0.65667  0.32759  1.0000
  C   C114      1.0  0.87774  0.74283  0.34598  1.0000
  C   C115      1.0  0.87745  0.82704  0.28941  1.0000
  C   C116      1.0  0.85141  0.82558  0.21679  1.0000
  C   C117      1.0  0.19926  0.75912  0.88187  1.0000
  C   C118      1.0  0.02221  0.74963  0.65598  1.0000
  C   C119      1.0  0.09361  0.74686  0.57711  1.0000
  C   C120      1.0  0.04665  0.74615  0.57882  1.0000
  C   C121      1.0  0.17187  0.75504  0.80388  1.0000
  C   C122      1.0  0.17184  0.83854  0.74691  1.0000
  C   C123      1.0  0.14678  0.83489  0.67320  1.0000
  C   C124      1.0  0.12031  0.74899  0.65581  1.0000
  C   C125      1.0  0.12035  0.66570  0.71331  1.0000
  C   C126      1.0  0.14631  0.66812  0.78599  1.0000
  C   C127      1.0  0.17018  0.74727  0.19490  1.0000
  C   C128      1.0  0.11901  0.74777  0.34312  1.0000
  C   C129      1.0  0.83061  0.83804  0.75224  1.0000
  C   C130      1.0  0.85523  0.83453  0.67813  1.0000
  C   C131      1.0  0.87726  0.66309  0.71550  1.0000
  C   C132      1.0  0.85184  0.66550  0.78872  1.0000
  C   C133      1.0  0.69692  0.48148  0.11398  1.0000
  C   C134      1.0  0.52113  0.48909  0.34427  1.0000
  C   C135      1.0  0.52355  0.49315  0.49943  1.0000
  C   C136      1.0  0.59344  0.48923  0.42040  1.0000
  C   C137      1.0  0.54654  0.49135  0.42051  1.0000
  C   C138      1.0  0.61645  0.48850  0.49704  1.0000
  C   C139      1.0  0.66958  0.48302  0.19198  1.0000
  C   C140      1.0  0.66938  0.90886  0.25103  1.0000
  C   C141      1.0  0.64439  0.91193  0.32467  1.0000
  C   C142      1.0  0.61969  0.99818  0.34291  1.0000
  C   C143      1.0  0.62042  0.57152  0.28444  1.0000
  C   C144      1.0  0.64588  0.57012  0.21128  1.0000
  C   C145      1.0  0.29976  0.50450  0.12075  1.0000
  C   C146      1.0  0.47591  0.49238  0.34546  1.0000
  C   C147      1.0  0.47622  0.49633  0.50071  1.0000
  C   C148      1.0  0.40515  0.50267  0.42536  1.0000
  C   C149      1.0  0.45197  0.49811  0.42303  1.0000
  C   C150      1.0  0.38339  0.50430  0.50307  1.0000
  C   C151      1.0  0.37843  0.50403  0.34674  1.0000
  C   C152      1.0  0.30286  0.51387  0.88627  1.0000
  C   C153      1.0  0.47864  0.49965  0.65593  1.0000
  C   C154      1.0  0.40634  0.50183  0.57976  1.0000
  C   C155      1.0  0.45324  0.49820  0.57964  1.0000
  C   C156      1.0  0.32711  0.50515  0.19875  1.0000
  C   C157      1.0  0.32766  0.91601  0.25267  1.0000
  C   C158      1.0  0.35260  0.91943  0.32655  1.0000
  C   C159      1.0  0.37912  0.58930  0.29135  1.0000
  C   C160      1.0  0.35321  0.59044  0.21858  1.0000
  C   C161      1.0  0.69953  0.50316  0.87971  1.0000
  C   C162      1.0  0.52387  0.49698  0.65471  1.0000
  C   C163      1.0  0.59469  0.49024  0.57471  1.0000
  C   C164      1.0  0.54783  0.49243  0.57708  1.0000
  C   C165      1.0  0.67191  0.99759  0.80380  1.0000
  C   C166      1.0  0.66991  0.58584  0.74754  1.0000
  C   C167      1.0  0.64494  0.58188  0.67372  1.0000
  C   C168      1.0  0.62145  0.49274  0.65333  1.0000
  C   C169      1.0  0.61910  0.91353  0.71248  1.0000
  C   C170      1.0  0.64499  0.91309  0.78534  1.0000
  C   C171      1.0  0.32891  0.01589  0.80611  1.0000
  C   C172      1.0  0.33259  0.59590  0.75311  1.0000
  C   C173      1.0  0.35709  0.59232  0.67887  1.0000
  C   C174      1.0  0.38074  0.50493  0.65947  1.0000
  C   C175      1.0  0.37817  0.92603  0.71464  1.0000
  C   C176      1.0  0.35263  0.92849  0.78766  1.0000
  O   O1        1.0  0.21743  0.16240  0.10006  1.0000
  O   O2        1.0  0.72197  0.24335  0.99622  1.0000
  O   O3        1.0  0.79572  0.32506  0.07474  1.0000
  O   O4        1.0  0.79746  0.16935  0.92553  1.0000
  O   O5        1.0  0.78437  0.15571  0.09873  1.0000
  O   O6        1.0  0.21549  0.34946  0.90383  1.0000
  O   O7        1.0  0.20425  0.32950  0.07556  1.0000
  O   O8        1.0  0.20440  0.17958  0.92521  1.0000
  O   O9        1.0  0.78300  0.33565  0.89990  1.0000
  O   O10       1.0  0.71335  0.39610  0.09490  1.0000
  O   O11       1.0  0.29578  0.08009  0.07577  1.0000
  O   O12       1.0  0.29765  0.43047  0.92907  1.0000
  O   O13       1.0  0.28229  0.41986  0.10080  1.0000
  O   O14       1.0  0.71747  0.08385  0.90008  1.0000
  O   O15       1.0  0.70435  0.07323  0.07461  1.0000
  O   O16       1.0  0.70464  0.41994  0.92113  1.0000
  O   O17       1.0  0.28646  0.10474  0.90436  1.0000
  O   O18       1.0  0.27778  0.75864  0.99983  1.0000
  O   O19       1.0  0.21551  0.66274  0.09922  1.0000
  O   O20       1.0  0.79339  0.81973  0.07912  1.0000
  O   O21       1.0  0.79590  0.67302  0.92841  1.0000
  O   O22       1.0  0.78204  0.65017  0.09980  1.0000
  O   O23       1.0  0.21557  0.84561  0.90115  1.0000
  O   O24       1.0  0.20213  0.83006  0.07431  1.0000
  O   O25       1.0  0.20461  0.67631  0.92442  1.0000
  O   O26       1.0  0.78451  0.84104  0.90440  1.0000
  O   O27       1.0  0.77734  0.49549  0.99957  1.0000
  O   O28       1.0  0.71550  0.90533  0.09974  1.0000
  O   O29       1.0  0.29568  0.58837  0.07882  1.0000
  O   O30       1.0  0.29553  0.93485  0.92531  1.0000
  O   O31       1.0  0.28242  0.91194  0.09958  1.0000
  O   O32       1.0  0.71570  0.58959  0.90030  1.0000
  O   O33       1.0  0.70202  0.56477  0.07186  1.0000
  O   O34       1.0  0.70243  0.91591  0.92547  1.0000
  O   O35       1.0  0.28642  0.59903  0.90448  1.0000
  O   O36       1.0  0.27839  0.25886  0.00368  1.0000
  O   O37       1.0  0.77802  0.99530  0.00097  1.0000
  O   O38       1.0  0.22199  0.00601  0.99939  1.0000
  O   O39       1.0  0.72050  0.74433  0.00070  1.0000
  O   O40       1.0  0.22215  0.50584  0.99994  1.0000
  N   N1        1.0  0.43478  0.75508  0.53711  1.0000
  N   N2        1.0  0.43133  0.75318  0.46686  1.0000
