data_image0
_chemical_formula_structural       In16H72C168N24O96CO2
_chemical_formula_sum              "In16 H72 C169 N24 O98"
_cell_length_a       16.1284
_cell_length_b       16.5236
_cell_length_c       19.4168
_cell_angle_alpha    90
_cell_angle_beta     90
_cell_angle_gamma    89.9741

_space_group_name_H-M_alt    "P 1"
_space_group_IT_number       1

loop_
  _space_group_symop_operation_xyz
  'x, y, z'

loop_
  _atom_site_type_symbol
  _atom_site_label
  _atom_site_symmetry_multiplicity
  _atom_site_fract_x
  _atom_site_fract_y
  _atom_site_fract_z
  _atom_site_occupancy
  In  In1       1.0  0.53140  0.26312  0.01856  1.0000
  In  In2       1.0  0.27523  0.93028  0.81626  1.0000
  In  In3       1.0  0.96859  0.23688  0.01856  1.0000
  In  In4       1.0  0.22476  0.56972  0.81626  1.0000
  In  In5       1.0  0.46881  0.76333  0.48147  1.0000
  In  In6       1.0  0.72485  0.43003  0.68413  1.0000
  In  In7       1.0  0.03118  0.73667  0.48147  1.0000
  In  In8       1.0  0.77515  0.06997  0.68413  1.0000
  In  In9       1.0  0.46859  0.73688  0.98144  1.0000
  In  In10      1.0  0.72476  0.06972  0.18374  1.0000
  In  In11      1.0  0.03140  0.76312  0.98144  1.0000
  In  In12      1.0  0.77523  0.43028  0.18374  1.0000
  In  In13      1.0  0.53118  0.23667  0.51853  1.0000
  In  In14      1.0  0.27515  0.56997  0.31587  1.0000
  In  In15      1.0  0.96881  0.26333  0.51853  1.0000
  In  In16      1.0  0.22485  0.93003  0.31587  1.0000
  H   H1        1.0  0.20035  0.95063  0.07756  1.0000
  H   H2        1.0  0.29131  0.06808  0.10794  1.0000
  H   H3        1.0  0.39503  0.05548  0.90377  1.0000
  H   H4        1.0  0.01608  0.04064  0.69061  1.0000
  H   H5        1.0  0.95684  0.12985  0.78416  1.0000
  H   H6        1.0  0.16990  0.07084  0.90806  1.0000
  H   H7        1.0  0.41872  0.09758  0.59979  1.0000
  H   H8        1.0  0.57090  0.23844  0.78446  1.0000
  H   H9        1.0  0.46675  0.13318  0.81645  1.0000
  H   H10       1.0  0.29964  0.54937  0.07756  1.0000
  H   H11       1.0  0.20869  0.43192  0.10794  1.0000
  H   H12       1.0  0.10497  0.44452  0.90377  1.0000
  H   H13       1.0  0.48392  0.45936  0.69061  1.0000
  H   H14       1.0  0.54316  0.37015  0.78416  1.0000
  H   H15       1.0  0.33010  0.42916  0.90806  1.0000
  H   H16       1.0  0.08127  0.40242  0.59979  1.0000
  H   H17       1.0  0.92909  0.26156  0.78446  1.0000
  H   H18       1.0  0.03324  0.36682  0.81645  1.0000
  H   H19       1.0  0.79918  0.45061  0.42269  1.0000
  H   H20       1.0  0.70811  0.56806  0.39228  1.0000
  H   H21       1.0  0.60525  0.55580  0.59698  1.0000
  H   H22       1.0  0.98378  0.54113  0.80904  1.0000
  H   H23       1.0  0.04324  0.62980  0.71498  1.0000
  H   H24       1.0  0.83001  0.57068  0.59144  1.0000
  H   H25       1.0  0.58123  0.59773  0.90033  1.0000
  H   H26       1.0  0.42907  0.73854  0.71548  1.0000
  H   H27       1.0  0.53335  0.63340  0.68351  1.0000
  H   H28       1.0  0.70081  0.04939  0.42269  1.0000
  H   H29       1.0  0.79188  0.93195  0.39228  1.0000
  H   H30       1.0  0.89474  0.94420  0.59698  1.0000
  H   H31       1.0  0.51621  0.95887  0.80904  1.0000
  H   H32       1.0  0.45676  0.87020  0.71498  1.0000
  H   H33       1.0  0.66998  0.92933  0.59144  1.0000
  H   H34       1.0  0.91876  0.90227  0.90033  1.0000
  H   H35       1.0  0.07092  0.76146  0.71548  1.0000
  H   H36       1.0  0.96664  0.86661  0.68351  1.0000
  H   H37       1.0  0.79964  0.04937  0.92244  1.0000
  H   H38       1.0  0.70868  0.93192  0.89206  1.0000
  H   H39       1.0  0.60496  0.94452  0.09623  1.0000
  H   H40       1.0  0.98391  0.95936  0.30939  1.0000
  H   H41       1.0  0.04316  0.87015  0.21584  1.0000
  H   H42       1.0  0.83010  0.92917  0.09194  1.0000
  H   H43       1.0  0.58127  0.90242  0.40020  1.0000
  H   H44       1.0  0.42909  0.76156  0.21554  1.0000
  H   H45       1.0  0.53324  0.86682  0.18355  1.0000
  H   H46       1.0  0.70035  0.45063  0.92244  1.0000
  H   H47       1.0  0.79130  0.56809  0.89206  1.0000
  H   H48       1.0  0.89503  0.55548  0.09623  1.0000
  H   H49       1.0  0.51608  0.54064  0.30939  1.0000
  H   H50       1.0  0.45684  0.62985  0.21584  1.0000
  H   H51       1.0  0.66989  0.57084  0.09194  1.0000
  H   H52       1.0  0.91872  0.59758  0.40020  1.0000
  H   H53       1.0  0.07090  0.73844  0.21554  1.0000
  H   H54       1.0  0.96675  0.63318  0.18355  1.0000
  H   H55       1.0  0.20081  0.54939  0.57731  1.0000
  H   H56       1.0  0.29188  0.43194  0.60772  1.0000
  H   H57       1.0  0.39474  0.44420  0.40302  1.0000
  H   H58       1.0  0.01621  0.45887  0.19096  1.0000
  H   H59       1.0  0.95676  0.37020  0.28502  1.0000
  H   H60       1.0  0.16998  0.42932  0.40856  1.0000
  H   H61       1.0  0.41876  0.40227  0.09967  1.0000
  H   H62       1.0  0.57092  0.26146  0.28452  1.0000
  H   H63       1.0  0.46665  0.36661  0.31649  1.0000
  H   H64       1.0  0.29918  0.95062  0.57731  1.0000
  H   H65       1.0  0.20812  0.06806  0.60772  1.0000
  H   H66       1.0  0.10526  0.05580  0.40302  1.0000
  H   H67       1.0  0.48378  0.04113  0.19096  1.0000
  H   H68       1.0  0.54324  0.12980  0.28502  1.0000
  H   H69       1.0  0.33002  0.07068  0.40856  1.0000
  H   H70       1.0  0.08123  0.09773  0.09967  1.0000
  H   H71       1.0  0.92907  0.23854  0.28452  1.0000
  H   H72       1.0  0.03335  0.13339  0.31649  1.0000
  C   C1        1.0  0.19086  0.87684  0.94887  1.0000
  C   C2        1.0  0.24729  0.94414  0.97368  1.0000
  C   C3        1.0  0.24345  0.97543  0.04014  1.0000
  C   C4        1.0  0.29521  0.04012  0.05741  1.0000
  C   C5        1.0  0.35232  0.06934  0.00934  1.0000
  C   C6        1.0  0.35302  0.03444  0.94364  1.0000
  C   C7        1.0  0.40958  0.13808  0.02792  1.0000
  C   C8        1.0  0.14897  0.93844  0.70392  1.0000
  C   C9        1.0  0.12000  0.00547  0.75233  1.0000
  C   C10       1.0  0.04777  0.04946  0.73941  1.0000
  C   C11       1.0  0.01580  0.09896  0.79112  1.0000
  C   C12       1.0  0.05870  0.10616  0.85356  1.0000
  C   C13       1.0  0.13379  0.06496  0.86101  1.0000
  C   C14       1.0  0.02586  0.15445  0.91235  1.0000
  C   C15       1.0  0.37081  0.04389  0.72529  1.0000
  C   C16       1.0  0.43383  0.10843  0.71059  1.0000
  C   C17       1.0  0.45030  0.12836  0.64182  1.0000
  C   C18       1.0  0.54564  0.22621  0.67572  1.0000
  C   C19       1.0  0.53470  0.20787  0.74508  1.0000
  C   C20       1.0  0.47693  0.14867  0.76273  1.0000
  C   C21       1.0  0.60159  0.29340  0.65293  1.0000
  C   C22       1.0  0.30913  0.62317  0.94887  1.0000
  C   C23       1.0  0.25270  0.55586  0.97368  1.0000
  C   C24       1.0  0.25655  0.52458  0.04014  1.0000
  C   C25       1.0  0.20479  0.45988  0.05741  1.0000
  C   C26       1.0  0.14768  0.43066  0.00934  1.0000
  C   C27       1.0  0.14697  0.46557  0.94364  1.0000
  C   C28       1.0  0.09041  0.36192  0.02792  1.0000
  C   C29       1.0  0.35102  0.56157  0.70392  1.0000
  C   C30       1.0  0.38000  0.49453  0.75233  1.0000
  C   C31       1.0  0.45222  0.45054  0.73941  1.0000
  C   C32       1.0  0.48419  0.40104  0.79112  1.0000
  C   C33       1.0  0.44129  0.39384  0.85356  1.0000
  C   C34       1.0  0.36621  0.43504  0.86101  1.0000
  C   C35       1.0  0.47413  0.34555  0.91235  1.0000
  C   C36       1.0  0.12919  0.45612  0.72529  1.0000
  C   C37       1.0  0.06617  0.39157  0.71059  1.0000
  C   C38       1.0  0.04969  0.37164  0.64182  1.0000
  C   C39       1.0  0.95435  0.27379  0.67572  1.0000
  C   C40       1.0  0.96529  0.29213  0.74508  1.0000
  C   C41       1.0  0.02306  0.35133  0.76273  1.0000
  C   C42       1.0  0.89840  0.20661  0.65293  1.0000
  C   C43       1.0  0.80902  0.37677  0.55136  1.0000
  C   C44       1.0  0.75246  0.44412  0.52663  1.0000
  C   C45       1.0  0.75610  0.47548  0.46015  1.0000
  C   C46       1.0  0.70431  0.54031  0.44295  1.0000
  C   C47       1.0  0.64764  0.56991  0.49130  1.0000
  C   C48       1.0  0.64707  0.53474  0.55696  1.0000
  C   C49       1.0  0.59015  0.63887  0.47344  1.0000
  C   C50       1.0  0.85082  0.43983  0.79631  1.0000
  C   C51       1.0  0.87972  0.50618  0.74741  1.0000
  C   C52       1.0  0.95209  0.54995  0.76024  1.0000
  C   C53       1.0  0.98416  0.59904  0.70838  1.0000
  C   C54       1.0  0.94110  0.60596  0.64600  1.0000
  C   C55       1.0  0.86598  0.56496  0.63857  1.0000
  C   C56       1.0  0.97422  0.65388  0.58727  1.0000
  C   C57       1.0  0.62912  0.54377  0.77498  1.0000
  C   C58       1.0  0.56618  0.60852  0.78948  1.0000
  C   C59       1.0  0.54965  0.62849  0.85826  1.0000
  C   C60       1.0  0.45426  0.72636  0.82423  1.0000
  C   C61       1.0  0.46530  0.70800  0.75489  1.0000
  C   C62       1.0  0.52315  0.64878  0.73727  1.0000
  C   C63       1.0  0.39831  0.79362  0.84697  1.0000
  C   C64       1.0  0.69097  0.12323  0.55136  1.0000
  C   C65       1.0  0.74753  0.05588  0.52663  1.0000
  C   C66       1.0  0.74389  0.02452  0.46015  1.0000
  C   C67       1.0  0.79568  0.95969  0.44295  1.0000
  C   C68       1.0  0.85235  0.93009  0.49130  1.0000
  C   C69       1.0  0.85292  0.96526  0.55696  1.0000
  C   C70       1.0  0.90984  0.86113  0.47344  1.0000
  C   C71       1.0  0.64918  0.06017  0.79631  1.0000
  C   C72       1.0  0.62027  0.99382  0.74741  1.0000
  C   C73       1.0  0.54790  0.95005  0.76024  1.0000
  C   C74       1.0  0.51583  0.90097  0.70838  1.0000
  C   C75       1.0  0.55889  0.89404  0.64600  1.0000
  C   C76       1.0  0.63401  0.93504  0.63857  1.0000
  C   C77       1.0  0.52577  0.84612  0.58727  1.0000
  C   C78       1.0  0.87087  0.95623  0.77498  1.0000
  C   C79       1.0  0.93381  0.89148  0.78948  1.0000
  C   C80       1.0  0.95034  0.87151  0.85826  1.0000
  C   C81       1.0  0.04573  0.77365  0.82423  1.0000
  C   C82       1.0  0.03469  0.79201  0.75489  1.0000
  C   C83       1.0  0.97684  0.85122  0.73727  1.0000
  C   C84       1.0  0.10168  0.70638  0.84697  1.0000
  C   C85       1.0  0.80913  0.12316  0.05113  1.0000
  C   C86       1.0  0.75270  0.05586  0.02632  1.0000
  C   C87       1.0  0.75655  0.02458  0.95986  1.0000
  C   C88       1.0  0.70478  0.95988  0.94259  1.0000
  C   C89       1.0  0.64768  0.93067  0.99066  1.0000
  C   C90       1.0  0.64697  0.96557  0.05636  1.0000
  C   C91       1.0  0.59041  0.86192  0.97208  1.0000
  C   C92       1.0  0.85102  0.06157  0.29608  1.0000
  C   C93       1.0  0.88000  0.99453  0.24767  1.0000
  C   C94       1.0  0.95222  0.95055  0.26059  1.0000
  C   C95       1.0  0.98419  0.90104  0.20888  1.0000
  C   C96       1.0  0.94129  0.89384  0.14644  1.0000
  C   C97       1.0  0.86620  0.93504  0.13899  1.0000
  C   C98       1.0  0.97413  0.84556  0.08765  1.0000
  C   C99       1.0  0.62918  0.95612  0.27471  1.0000
  C   C100      1.0  0.56616  0.89157  0.28941  1.0000
  C   C101      1.0  0.54969  0.87164  0.35818  1.0000
  C   C102      1.0  0.45435  0.77379  0.32428  1.0000
  C   C103      1.0  0.46529  0.79213  0.25492  1.0000
  C   C104      1.0  0.52306  0.85133  0.23727  1.0000
  C   C105      1.0  0.39840  0.70661  0.34707  1.0000
  C   C106      1.0  0.69086  0.37684  0.05113  1.0000
  C   C107      1.0  0.74729  0.44414  0.02632  1.0000
  C   C108      1.0  0.74345  0.47543  0.95986  1.0000
  C   C109      1.0  0.79521  0.54012  0.94259  1.0000
  C   C110      1.0  0.85231  0.56934  0.99066  1.0000
  C   C111      1.0  0.85302  0.53444  0.05636  1.0000
  C   C112      1.0  0.90958  0.63808  0.97208  1.0000
  C   C113      1.0  0.64897  0.43843  0.29608  1.0000
  C   C114      1.0  0.61999  0.50547  0.24767  1.0000
  C   C115      1.0  0.54777  0.54946  0.26059  1.0000
  C   C116      1.0  0.51580  0.59896  0.20888  1.0000
  C   C117      1.0  0.55870  0.60616  0.14644  1.0000
  C   C118      1.0  0.63378  0.56496  0.13899  1.0000
  C   C119      1.0  0.52586  0.65445  0.08765  1.0000
  C   C120      1.0  0.87080  0.54389  0.27471  1.0000
  C   C121      1.0  0.93383  0.60843  0.28941  1.0000
  C   C122      1.0  0.95030  0.62836  0.35818  1.0000
  C   C123      1.0  0.04564  0.72621  0.32428  1.0000
  C   C124      1.0  0.03470  0.70787  0.25492  1.0000
  C   C125      1.0  0.97693  0.64867  0.23727  1.0000
  C   C126      1.0  0.10159  0.79340  0.34707  1.0000
  C   C127      1.0  0.19097  0.62323  0.44864  1.0000
  C   C128      1.0  0.24753  0.55588  0.47337  1.0000
  C   C129      1.0  0.24389  0.52452  0.53985  1.0000
  C   C130      1.0  0.29569  0.45969  0.55705  1.0000
  C   C131      1.0  0.35235  0.43009  0.50870  1.0000
  C   C132      1.0  0.35292  0.46526  0.44304  1.0000
  C   C133      1.0  0.40984  0.36113  0.52656  1.0000
  C   C134      1.0  0.14918  0.56017  0.20368  1.0000
  C   C135      1.0  0.12027  0.49382  0.25258  1.0000
  C   C136      1.0  0.04791  0.45005  0.23976  1.0000
  C   C137      1.0  0.01583  0.40096  0.29162  1.0000
  C   C138      1.0  0.05889  0.39404  0.35400  1.0000
  C   C139      1.0  0.13401  0.43504  0.36143  1.0000
  C   C140      1.0  0.02578  0.34612  0.41272  1.0000
  C   C141      1.0  0.37087  0.45623  0.22502  1.0000
  C   C142      1.0  0.43381  0.39148  0.21052  1.0000
  C   C143      1.0  0.45034  0.37151  0.14174  1.0000
  C   C144      1.0  0.54573  0.27364  0.17577  1.0000
  C   C145      1.0  0.53469  0.29201  0.24511  1.0000
  C   C146      1.0  0.47685  0.35122  0.26273  1.0000
  C   C147      1.0  0.60168  0.20638  0.15303  1.0000
  C   C148      1.0  0.30902  0.87677  0.44864  1.0000
  C   C149      1.0  0.25246  0.94412  0.47337  1.0000
  C   C150      1.0  0.25610  0.97548  0.53985  1.0000
  C   C151      1.0  0.20431  0.04031  0.55705  1.0000
  C   C152      1.0  0.14765  0.06991  0.50870  1.0000
  C   C153      1.0  0.14707  0.03474  0.44304  1.0000
  C   C154      1.0  0.09015  0.13887  0.52656  1.0000
  C   C155      1.0  0.35082  0.93983  0.20368  1.0000
  C   C156      1.0  0.37972  0.00618  0.25258  1.0000
  C   C157      1.0  0.45209  0.04995  0.23976  1.0000
  C   C158      1.0  0.48416  0.09904  0.29162  1.0000
  C   C159      1.0  0.44111  0.10596  0.35400  1.0000
  C   C160      1.0  0.36599  0.06496  0.36143  1.0000
  C   C161      1.0  0.47422  0.15388  0.41272  1.0000
  C   C162      1.0  0.12913  0.04377  0.22502  1.0000
  C   C163      1.0  0.06619  0.10852  0.21052  1.0000
  C   C164      1.0  0.04965  0.12849  0.14174  1.0000
  C   C165      1.0  0.95426  0.22636  0.17577  1.0000
  C   C166      1.0  0.96530  0.20800  0.24511  1.0000
  C   C167      1.0  0.02315  0.14878  0.26273  1.0000
  C   C168      1.0  0.89831  0.29362  0.15303  1.0000
  N   N1        1.0  0.30042  0.97476  0.92628  1.0000
  N   N2        1.0  0.16262  0.01570  0.81164  1.0000
  N   N3        1.0  0.50477  0.18628  0.62540  1.0000
  N   N4        1.0  0.19957  0.52524  0.92628  1.0000
  N   N5        1.0  0.33738  0.48430  0.81164  1.0000
  N   N6        1.0  0.99522  0.31372  0.62540  1.0000
  N   N7        1.0  0.69942  0.47474  0.57412  1.0000
  N   N8        1.0  0.83708  0.51598  0.68810  1.0000
  N   N9        1.0  0.49515  0.68646  0.87462  1.0000
  N   N10       1.0  0.80057  0.02526  0.57412  1.0000
  N   N11       1.0  0.66291  0.98402  0.68810  1.0000
  N   N12       1.0  0.00485  0.81355  0.87462  1.0000
  N   N13       1.0  0.69957  0.02524  0.07372  1.0000
  N   N14       1.0  0.83737  0.98430  0.18836  1.0000
  N   N15       1.0  0.49522  0.81372  0.37460  1.0000
  N   N16       1.0  0.80042  0.47476  0.07372  1.0000
  N   N17       1.0  0.66262  0.51570  0.18836  1.0000
  N   N18       1.0  0.00477  0.68628  0.37460  1.0000
  N   N19       1.0  0.30057  0.52527  0.42588  1.0000
  N   N20       1.0  0.16292  0.48402  0.31190  1.0000
  N   N21       1.0  0.50485  0.31355  0.12538  1.0000
  N   N22       1.0  0.19942  0.97474  0.42588  1.0000
  N   N23       1.0  0.33708  0.01598  0.31190  1.0000
  N   N24       1.0  0.99515  0.18646  0.12538  1.0000
  O   O1        1.0  0.19587  0.85408  0.88640  1.0000
  O   O2        1.0  0.14068  0.84821  0.99331  1.0000
  O   O3        1.0  0.40036  0.17470  0.08343  1.0000
  O   O4        1.0  0.46653  0.15556  0.98223  1.0000
  O   O5        1.0  0.20837  0.89216  0.72631  1.0000
  O   O6        1.0  0.11162  0.92926  0.64878  1.0000
  O   O7        1.0  0.96700  0.20444  0.90249  1.0000
  O   O8        1.0  0.05794  0.14373  0.97235  1.0000
  O   O9        1.0  0.36644  0.02229  0.78996  1.0000
  O   O10       1.0  0.32888  0.01571  0.67749  1.0000
  O   O11       1.0  0.63859  0.33061  0.70155  1.0000
  O   O12       1.0  0.60777  0.31194  0.58955  1.0000
  O   O13       1.0  0.30412  0.64592  0.88640  1.0000
  O   O14       1.0  0.35931  0.65179  0.99331  1.0000
  O   O15       1.0  0.09963  0.32530  0.08343  1.0000
  O   O16       1.0  0.03346  0.34444  0.98223  1.0000
  O   O17       1.0  0.29162  0.60784  0.72631  1.0000
  O   O18       1.0  0.38837  0.57075  0.64878  1.0000
  O   O19       1.0  0.53299  0.29556  0.90249  1.0000
  O   O20       1.0  0.44205  0.35627  0.97235  1.0000
  O   O21       1.0  0.13355  0.47771  0.78996  1.0000
  O   O22       1.0  0.17112  0.48429  0.67749  1.0000
  O   O23       1.0  0.86141  0.16939  0.70155  1.0000
  O   O24       1.0  0.89222  0.18806  0.58955  1.0000
  O   O25       1.0  0.80407  0.35390  0.61383  1.0000
  O   O26       1.0  0.85923  0.34839  0.50684  1.0000
  O   O27       1.0  0.59565  0.67371  0.41670  1.0000
  O   O28       1.0  0.53668  0.65884  0.52114  1.0000
  O   O29       1.0  0.79200  0.39258  0.77416  1.0000
  O   O30       1.0  0.88790  0.43236  0.85174  1.0000
  O   O31       1.0  0.03348  0.70320  0.59733  1.0000
  O   O32       1.0  0.94206  0.64358  0.52726  1.0000
  O   O33       1.0  0.63336  0.52163  0.71044  1.0000
  O   O34       1.0  0.67108  0.51574  0.82280  1.0000
  O   O35       1.0  0.36158  0.83113  0.79835  1.0000
  O   O36       1.0  0.39198  0.81202  0.91034  1.0000
  O   O37       1.0  0.69592  0.14610  0.61383  1.0000
  O   O38       1.0  0.64076  0.15161  0.50684  1.0000
  O   O39       1.0  0.90434  0.82629  0.41670  1.0000
  O   O40       1.0  0.96331  0.84116  0.52114  1.0000
  O   O41       1.0  0.70799  0.10742  0.77416  1.0000
  O   O42       1.0  0.61209  0.06764  0.85174  1.0000
  O   O43       1.0  0.46651  0.79680  0.59733  1.0000
  O   O44       1.0  0.55793  0.85642  0.52726  1.0000
  O   O45       1.0  0.86663  0.97837  0.71044  1.0000
  O   O46       1.0  0.82890  0.98426  0.82280  1.0000
  O   O47       1.0  0.13841  0.66887  0.79835  1.0000
  O   O48       1.0  0.10801  0.68798  0.91034  1.0000
  O   O49       1.0  0.80412  0.14592  0.11360  1.0000
  O   O50       1.0  0.85931  0.15179  0.00669  1.0000
  O   O51       1.0  0.59963  0.82531  0.91657  1.0000
  O   O52       1.0  0.53346  0.84444  0.01777  1.0000
  O   O53       1.0  0.79162  0.10784  0.27369  1.0000
  O   O54       1.0  0.88837  0.07075  0.35122  1.0000
  O   O55       1.0  0.03299  0.79556  0.09751  1.0000
  O   O56       1.0  0.94205  0.85627  0.02765  1.0000
  O   O57       1.0  0.63355  0.97771  0.21003  1.0000
  O   O58       1.0  0.67111  0.98429  0.32251  1.0000
  O   O59       1.0  0.36141  0.66939  0.29845  1.0000
  O   O60       1.0  0.39222  0.68807  0.41045  1.0000
  O   O61       1.0  0.69587  0.35408  0.11360  1.0000
  O   O62       1.0  0.64068  0.34821  0.00669  1.0000
  O   O63       1.0  0.90036  0.67470  0.91657  1.0000
  O   O64       1.0  0.96653  0.65556  0.01777  1.0000
  O   O65       1.0  0.70837  0.39216  0.27369  1.0000
  O   O66       1.0  0.61162  0.42925  0.35122  1.0000
  O   O67       1.0  0.46700  0.70444  0.09751  1.0000
  O   O68       1.0  0.55794  0.64373  0.02765  1.0000
  O   O69       1.0  0.86644  0.52229  0.21003  1.0000
  O   O70       1.0  0.82888  0.51571  0.32251  1.0000
  O   O71       1.0  0.13859  0.83061  0.29845  1.0000
  O   O72       1.0  0.10777  0.81194  0.41045  1.0000
  O   O73       1.0  0.19592  0.64610  0.38617  1.0000
  O   O74       1.0  0.14076  0.65161  0.49316  1.0000
  O   O75       1.0  0.40434  0.32629  0.58330  1.0000
  O   O76       1.0  0.46331  0.34116  0.47886  1.0000
  O   O77       1.0  0.20799  0.60742  0.22584  1.0000
  O   O78       1.0  0.11209  0.56764  0.14826  1.0000
  O   O79       1.0  0.96651  0.29680  0.40267  1.0000
  O   O80       1.0  0.05793  0.35642  0.47274  1.0000
  O   O81       1.0  0.36663  0.47837  0.28956  1.0000
  O   O82       1.0  0.32891  0.48426  0.17720  1.0000
  O   O83       1.0  0.63841  0.16887  0.20165  1.0000
  O   O84       1.0  0.60801  0.18798  0.08966  1.0000
  O   O85       1.0  0.30407  0.85390  0.38617  1.0000
  O   O86       1.0  0.35923  0.84839  0.49316  1.0000
  O   O87       1.0  0.09566  0.17371  0.58330  1.0000
  O   O88       1.0  0.03668  0.15884  0.47886  1.0000
  O   O89       1.0  0.29200  0.89258  0.22584  1.0000
  O   O90       1.0  0.38790  0.93236  0.14826  1.0000
  O   O91       1.0  0.53348  0.20320  0.40267  1.0000
  O   O92       1.0  0.44206  0.14358  0.47274  1.0000
  O   O93       1.0  0.13337  0.02163  0.28956  1.0000
  O   O94       1.0  0.17109  0.01574  0.17720  1.0000
  O   O95       1.0  0.86158  0.33113  0.20165  1.0000
  O   O96       1.0  0.89198  0.31202  0.08966  1.0000
  C   C169      1.0  0.25009  0.25105  0.59879  1.0000
  O   O97       1.0  0.25023  0.24706  0.53830  1.0000
  O   O98       1.0  0.24986  0.25504  0.65929  1.0000
