data_image0
_chemical_formula_structural       In4H16C32O20CO2
_chemical_formula_sum              "In4 H16 C33 O22"
_cell_length_a       12.464
_cell_length_b       12.7294
_cell_length_c       12.7149
_cell_angle_alpha    76.1118
_cell_angle_beta     60.646
_cell_angle_gamma    60.6816

_space_group_name_H-M_alt    "P 1"
_space_group_IT_number       1

loop_
  _space_group_symop_operation_xyz
  'x, y, z'

loop_
  _atom_site_type_symbol
  _atom_site_label
  _atom_site_symmetry_multiplicity
  _atom_site_fract_x
  _atom_site_fract_y
  _atom_site_fract_z
  _atom_site_occupancy
  In  In1       1.0  0.06428  0.87122  0.50017  1.0000
  In  In2       1.0  0.43552  0.12885  0.50017  1.0000
  In  In3       1.0  0.68611  0.99988  0.62795  1.0000
  In  In4       1.0  0.31399  0.99988  0.37211  1.0000
  H   H1        1.0  0.01195  0.94130  0.18602  1.0000
  H   H2        1.0  0.13918  0.05886  0.81403  1.0000
  H   H3        1.0  0.70342  0.68584  0.55864  1.0000
  H   H4        1.0  0.94790  0.31430  0.44112  1.0000
  H   H5        1.0  0.73795  0.31421  0.55867  1.0000
  H   H6        1.0  0.61091  0.68575  0.44115  1.0000
  H   H7        1.0  0.04670  0.94132  0.81393  1.0000
  H   H8        1.0  0.80203  0.05888  0.18592  1.0000
  H   H9        1.0  0.87536  0.06527  0.43450  1.0000
  H   H10       1.0  0.37521  0.93472  0.56550  1.0000
  H   H11       1.0  0.68993  0.93504  0.43427  1.0000
  H   H12       1.0  0.05940  0.06562  0.56526  1.0000
  H   H13       1.0  0.37380  0.99981  0.99979  1.0000
  H   H14       1.0  0.12367  0.49968  0.50006  1.0000
  H   H15       1.0  0.37625  0.50020  0.50021  1.0000
  H   H16       1.0  0.62625  0.99993  0.00036  1.0000
  C   C1        1.0  0.19129  0.97179  0.10533  1.0000
  C   C2        1.0  0.08084  0.96882  0.10431  1.0000
  C   C3        1.0  0.20566  0.94750  0.22024  1.0000
  C   C4        1.0  0.26835  0.02819  0.89465  1.0000
  C   C5        1.0  0.15388  0.03125  0.89573  1.0000
  C   C6        1.0  0.37330  0.05244  0.77975  1.0000
  C   C7        1.0  0.91333  0.60515  0.52787  1.0000
  C   C8        1.0  0.79976  0.60419  0.53113  1.0000
  C   C9        1.0  0.90421  0.71974  0.55145  1.0000
  C   C10       1.0  0.04637  0.39474  0.47199  1.0000
  C   C11       1.0  0.93504  0.39586  0.46877  1.0000
  C   C12       1.0  0.17535  0.28013  0.44834  1.0000
  C   C13       1.0  0.55878  0.39483  0.52797  1.0000
  C   C14       1.0  0.66912  0.39582  0.53114  1.0000
  C   C15       1.0  0.54427  0.28025  0.55171  1.0000
  C   C16       1.0  0.48159  0.60524  0.47208  1.0000
  C   C17       1.0  0.59616  0.60415  0.46878  1.0000
  C   C18       1.0  0.37615  0.71985  0.44858  1.0000
  C   C19       1.0  0.83684  0.97186  0.89473  1.0000
  C   C20       1.0  0.95033  0.96882  0.89569  1.0000
  C   C21       1.0  0.84669  0.94759  0.77986  1.0000
  C   C22       1.0  0.70342  0.02826  0.10541  1.0000
  C   C23       1.0  0.81490  0.03125  0.10427  1.0000
  C   C24       1.0  0.57423  0.05254  0.22035  1.0000
  C   C25       1.0  0.28647  0.99991  0.99994  1.0000
  C   C26       1.0  0.05958  0.99993  0.99997  1.0000
  C   C27       1.0  0.03645  0.49989  0.49994  1.0000
  C   C28       1.0  0.80955  0.50006  0.49991  1.0000
  C   C29       1.0  0.46355  0.50008  0.50010  1.0000
  C   C30       1.0  0.69043  0.50003  0.50005  1.0000
  C   C31       1.0  0.71351  0.00005  0.00014  1.0000
  C   C32       1.0  0.94046  0.00007  0.99994  1.0000
  O   O1        1.0  0.14925  0.88497  0.30029  1.0000
  O   O2        1.0  0.27234  0.99469  0.22691  1.0000
  O   O3        1.0  0.33425  0.11525  0.69980  1.0000
  O   O4        1.0  0.49383  0.00526  0.77294  1.0000
  O   O5        1.0  0.78538  0.80024  0.61353  1.0000
  O   O6        1.0  0.01846  0.72568  0.50435  1.0000
  O   O7        1.0  0.19898  0.19964  0.38637  1.0000
  O   O8        1.0  0.24847  0.27419  0.49541  1.0000
  O   O9        1.0  0.60130  0.19968  0.61350  1.0000
  O   O10       1.0  0.47685  0.27442  0.50479  1.0000
  O   O11       1.0  0.41457  0.80029  0.38634  1.0000
  O   O12       1.0  0.25595  0.72589  0.49578  1.0000
  O   O13       1.0  0.96565  0.88485  0.69986  1.0000
  O   O14       1.0  0.73288  0.99472  0.77315  1.0000
  O   O15       1.0  0.55058  0.11515  0.30035  1.0000
  O   O16       1.0  0.50092  0.00529  0.22711  1.0000
  O   O17       1.0  0.87519  0.00381  0.49662  1.0000
  O   O18       1.0  0.37532  0.99639  0.50358  1.0000
  O   O19       1.0  0.62802  0.99607  0.49682  1.0000
  O   O20       1.0  0.12129  0.00337  0.50392  1.0000
  C   C33       1.0  0.56552  0.74824  0.84540  1.0000
  O   O21       1.0  0.61468  0.75485  0.90077  1.0000
  O   O22       1.0  0.51554  0.74010  0.79139  1.0000
